! m062x def2-svp Opt TightSCF TightOpt CHELPG

%MaxCore 1900

%pal
 nprocs 8
end

%scf
 MaxIter 150
end

%geom
 MaxIter 150
end

* xyz 1 1
C            3.11122034544547        0.75303374792541       -1.48830899616035
C            2.43012110674972       -0.60810893793840       -1.49190831694571
C            1.66309259388592       -0.88024927541365       -0.16532961825816
C            2.62387761925292       -0.87742537104379        0.97651597029373
C            2.56756491041861        0.03179611414603        1.97787044228039
C            1.54644880847669        0.99450876848818        2.02387562386121
C            0.53521316138826        0.97390599187911        1.05876652835646
C            0.53493479151622        0.08794923982202        0.02259728580321
C           -0.62464210765966        0.02141665336524       -0.94448338984640
C           -0.72113182640506        1.28284608789864       -1.80800858955731
C           -1.87574806433296       -0.25978746253727       -0.13872925399758
C           -2.77458282993310        0.72922523304225        0.23739865681356
C           -3.87949022047211        0.42149587096445        1.01345467985369
C           -4.10310069445345       -0.87839373101757        1.42922379308890
C           -3.21255762997939       -1.87306603371709        1.06145956473964
C           -2.11143057681196       -1.56347142399345        0.28603887845686
H            2.38214880314650        1.54422508663464       -1.33150318468458
H            3.61625090995524        0.92595231193271       -2.43651428489268
H            3.84592736115441        0.80775141352062       -0.68857885443984
H            1.73248383094096       -0.66945533020448       -2.32905826493790
H            3.17974380081862       -1.39157810270736       -1.62340385194516
H            1.24337949944429       -1.89563728162077       -0.27342378250209
H            3.40319967950162       -1.62539900252982        0.94838133644778
H            3.30714862809754        0.01455133456279        2.76654065427271
H            1.51834702145667        1.71890724735061        2.82179261973056
H           -0.28726332888569        1.66879524265372        1.16048756720424
H           -0.47143635015489       -0.83216374208172       -1.61462698952330
H           -1.63464484072060        1.26533658215689       -2.39941520991208
H            0.12772002620250        1.33171493499937       -2.48639577061039
H           -0.71235440083596        2.18164972143707       -1.19717029266844
H           -2.62576497289527        1.75071868966374       -0.07672024305353
H           -4.56985064791684        1.20425696647961        1.29347656388588
H           -4.96614631912221       -1.11658909332341        2.03320921174184
H           -3.37799914749234       -2.89266279664611        1.37833974138630
H           -1.42067893978012       -2.34614965414735        0.00414977571997
*
