35
 energy: -43.876519236993 gnorm: 0.000404458982 xtb: 6.7.1 (edcfbbe)
C           -2.42998920558020        1.75515233205111        1.08779035298121
C           -2.46488521136380        0.23336079051496        1.04187275526551
C           -2.06111352775002       -0.39579338489419       -0.33441835140164
C           -2.75941692138376       -1.71460288305674       -0.42507066819243
C           -2.11530322288169       -2.88846131857625       -0.22465281166519
C           -0.72097322189007       -2.92452735983794       -0.06032741154096
C            0.01936760115571       -1.75335755795815       -0.24930349766782
C           -0.57557862832813       -0.54418090738159       -0.46336038837386
C            0.23941199154655        0.64307874279267       -0.91432196957488
C            0.38935470296860        0.56972366885885       -2.44014092889507
C            1.55343418686332        0.70789600277545       -0.16784036552604
C            2.79156462060369        0.55399103701583       -0.77601603000288
C            3.95859630283220        0.61748051445465       -0.03169818478047
C            3.90886954012057        0.83436810660179        1.33278447033447
C            2.67909989309628        0.98500371039306        1.95213666239586
C            1.51716342430007        0.92087043860154        1.20779665510984
H           -3.02982040621783        2.17753237149376        0.28327634470636
H           -1.41773134224413        2.14207000135232        1.00449208052319
H           -2.84100631279812        2.10160908864631        2.03466738003744
H           -1.81396988175443       -0.18464149220090        1.81179818425382
H           -3.48421116224482       -0.09233324305981        1.26356902411621
H           -2.44145279345451        0.28200877689122       -1.11132481690486
H           -3.82861897357151       -1.68575419417317       -0.57657013158517
H           -2.66894880407947       -3.81704816889613       -0.22267926560036
H           -0.21834647760747       -3.86034715850577        0.12403470698886
H            1.09905208396375       -1.81964463485513       -0.27243411686112
H           -0.31300395868848        1.56180219387476       -0.69074167500196
H            0.88055974515291       -0.35455151943455       -2.73461429734127
H            0.95995599149733        1.41796798596732       -2.81226197721590
H           -0.59502267168351        0.58774238670545       -2.90353323510157
H            2.86216354178878        0.38027584306039       -1.83825223556142
H            4.91237107446947        0.49498967934170       -0.52493060536604
H            4.82002449641946        0.88423871602212        1.91081639371190
H            2.62658457657880        1.15280182365879        3.01832205857536
H            0.56201895016430        1.03127961175653        1.70083589516211
