35
 energy: -43.877646507765 gnorm: 0.000282514854 xtb: 6.7.1 (edcfbbe)
C           -2.86428165770765        0.40763021255262       -1.42336575443207
C           -2.64463264543328       -0.71551440254282       -0.41990829018368
C           -1.15294104753968       -0.98372170573708       -0.03659878344312
C           -1.15994986635894       -2.26598938253103        0.73187805889926
C           -1.14514143833342       -2.27810247679956        2.08567757244905
C           -0.95248260027164       -1.08896290257840        2.80824840223631
C           -0.58355765084108        0.07734431404965        2.12650616220647
C           -0.56485801539174        0.14220188345617        0.76386320248302
C            0.09536886946459        1.24788792448500       -0.01401854541264
C            0.55407841770294        2.43965374763441        0.83033673028216
C            1.29084722310578        0.67839520275346       -0.75338656162560
C            1.49964439148679        0.97035375062756       -2.09418022227284
C            2.60197837358011        0.46691867007730       -2.76286298177110
C            3.50891608446670       -0.33817778860804       -2.09645473795597
C            3.30795481751462       -0.63526008539974       -0.75877551152268
C            2.20700780745776       -0.12988004502313       -0.09196340544421
H           -2.70257169116857        1.38177646398945       -0.96959622371870
H           -3.89027213063156        0.37759781649978       -1.78621281206330
H           -2.19941189614797        0.29793218044540       -2.27809851399371
H           -3.03663258589236       -1.64428376776517       -0.84126681738163
H           -3.19729225430019       -0.50694945570248        0.49783525927999
H           -0.59953451511346       -1.10408514800421       -0.97683291869171
H           -1.27869256598840       -3.17691271428518        0.16467568120957
H           -1.24216585349966       -3.21034295977184        2.62436100123677
H           -0.97891466601137       -1.09811940052763        3.88637515156172
H           -0.25252139931253        0.91972859142625        2.71562208465526
H           -0.60406185157669        1.62390421806095       -0.76755764683067
H           -0.28488741053590        2.87682580796739        1.36719734300529
H            1.31731144365629        2.13919045770408        1.54381178749257
H            0.98158797539345        3.20040151022814        0.17988528513004
H            0.79345402939994        1.59740320030404       -2.62154294347413
H            2.75057187094986        0.70184863651965       -3.80703688031457
H            4.36786039412275       -0.73446385699612       -2.61785281746788
H            4.01147340889754       -1.26498928559566       -0.23369496007883
H            2.04684863485734       -0.37113921091436        0.94903360595595
