35
 energy: -43.875119513307 gnorm: 0.000457808879 xtb: 6.7.1 (edcfbbe)
C            1.63529139816029        1.86036273229651        0.81151467455636
C            2.04826503654170        0.78744258498748       -0.18606952489569
C            1.28746544581296       -0.56810971697881        0.02346867366682
C            2.30462292289244       -1.66025853331497        0.08713606978302
C            2.46519010709938       -2.57692595673228       -0.89592565134475
C            1.59039322478563       -2.60945135260826       -1.99284841387678
C            0.48396307515522       -1.75525639639115       -2.00766686209293
C            0.26215388217162       -0.81454005794511       -1.04354654943958
C           -1.02783247509031       -0.02251547139322       -1.08138462660017
C           -0.88127798153203        1.23569095103352       -1.94829446789244
C           -1.57815056618263        0.23537898710929        0.30254598061855
C           -1.73601968950998       -0.85495776135307        1.15614735037716
C           -2.23600681282559       -0.69436400585281        2.43376561450719
C           -2.59731735889134        0.56523674870903        2.88384343737005
C           -2.46048948503931        1.65239198491280        2.04126045474152
C           -1.95608163742077        1.48973220710665        0.76056699754365
H            1.87588673302301        1.54766640565776        1.82579837585421
H            0.56650768908362        2.05206780480727        0.76509294845003
H            2.16498504924247        2.78936337570903        0.60720792249157
H            3.11918552671303        0.60125085035396       -0.07894186376780
H            1.88636432901635        1.13059582054451       -1.20795973117352
H            0.78800208133034       -0.48830042041769        0.99871010176167
H            2.96575639121916       -1.64374913125122        0.94133211029533
H            3.25763895244381       -3.30949949451153       -0.83203454913987
H            1.73055709431211       -3.32945403504146       -2.78318633189959
H           -0.24500685853898       -1.87574139022977       -2.79970603881286
H           -1.76512744272740       -0.66051512121544       -1.58997046896971
H           -0.22931979560359        1.96963160853000       -1.48468310635410
H           -0.45669569168348        0.96026341734114       -2.91155282224064
H           -1.85496680283509        1.68936944212382       -2.12257953596199
H           -1.45773253862008       -1.83947750427582        0.80535272016171
H           -2.34561706332455       -1.55318946862405        3.08021996823131
H           -2.98741937894046        0.69555909344874        3.88245505578862
H           -2.74753920923517        2.63790227966283        2.37935002620677
H           -1.86972815098595        2.35649952381048        0.12348206205873
