35
 energy: -43.878202595945 gnorm: 0.000307314107 xtb: 6.7.1 (edcfbbe)
C           -2.59358080876497        2.06824024036435       -0.65348379092389
C           -2.66756769535987        0.82454079996928        0.23256016162636
C           -1.61875119804442       -0.21848948604850       -0.03956648289401
C           -1.36635937168241       -0.67639215294993       -1.30093834161422
C           -0.58992932314889       -1.81491790748311       -1.53793333872683
C           -0.19977236946808       -2.61754721257542       -0.45433725079149
C           -0.42157367371341       -2.21145214356047        0.81830643831671
C           -0.90709934783551       -0.83421542411099        1.12210945177748
C            0.36944384556247       -0.01063714624670        1.58280288194363
C            0.02206173691764        1.36417830204214        2.14424715423629
C            1.37482596331299        0.04831281664393        0.46702744845112
C            1.24508421150061        0.92823595180476       -0.60012649232673
C            2.16420551014686        0.92971156742956       -1.63341702363901
C            3.23242713134987        0.05052402559752       -1.61948616632608
C            3.37597809889590       -0.82870771447040       -0.56052798118411
C            2.45415430723955       -0.82850696327152        0.46970550448260
H           -3.39033890393224        2.75994608729884       -0.38795456541142
H           -1.64364067827415        2.58293883344406       -0.52832485154831
H           -2.70403829173488        1.81087145792167       -1.70291444782514
H           -3.64958576467596        0.35961494703404        0.07882313245069
H           -2.62263960255325        1.12849014322478        1.27960509401989
H           -1.82723867635213       -0.18978716407210       -2.14914958081750
H           -0.38355273072014       -2.12887931344666       -2.54833182656808
H            0.24163992174518       -3.58484460786516       -0.64852374521293
H           -0.15843941643601       -2.83598796945141        1.65906773233839
H           -1.56822021100385       -0.84654155004240        1.99897602665227
H            0.80638999266451       -0.59880750930076        2.39849951809257
H            0.92918328669782        1.84210596865393        2.51098687345029
H           -0.67366630819591        1.27039393517422        2.97620152676728
H           -0.41894758566354        2.01074038520146        1.39391719399058
H            0.41591635349585        1.61626551690380       -0.63669541481626
H            2.04303909147956        1.61955631788695       -2.45639771792417
H            3.94882880364973        0.05087904232846       -2.42800266800946
H            4.20774217464467       -1.51810104606282       -0.53750215051801
H            2.57382152825770       -1.52193102796742        1.29057769847745
