! m062x def2-svp Opt TightSCF TightOpt CHELPG

%MaxCore 1900

%pal
 nprocs 8
end

%scf
 MaxIter 150
end

%geom
 Scan

     B 8 25 = 2.1531, 1.2000, 7

end

* xyz 1 1
C   -3.03311545243383     -1.23023125320162     -1.40158289460729
C   -2.07154086039388     -1.54370719412334     -0.25645004961539
C   -1.51866868857136     -0.36952824538044      0.48221745008925
C   -1.22702730715097     -0.45983800135294      1.83473418877813
C   -0.74535529197504      0.65476914779448      2.52407750142422
C   -0.58093207307257      1.92052808333277      1.91054355259527
C   -0.82144159784179      2.02954994899084      0.57236662616894
C   -1.18476692218305      0.86612475409882     -0.23816596634341
C   0.07281338252131      0.51644669134434     -1.26302505251977
C   0.40144595201100      1.73016681103182     -2.12292722218279
C   1.25637454760325     -0.07396615371077     -0.53816964536258
C   2.10333019720797      0.70834859000526      0.25844892492967
C   3.19208519825572      0.13576588406196      0.91356750210004
C   3.45280002937089     -1.22800531177769      0.78040152307335
C   2.63067671592392     -2.01292374601205     -0.02614511775063
C   1.54314979308337     -1.43815831550338     -0.68121998734547
H   -2.54382296331558     -0.69565074157914     -2.22818715047562
H   -3.43140157403525     -2.16559383675689     -1.81371417821404
H   -3.88525583830451     -0.62950529252687     -1.05347179056079
H   -2.53856359736324     -2.22004058387623      0.47385019686880
H   -1.19446151114848     -2.10175953210489     -0.63932684488266
H   -1.40020686670492     -1.39476637058505      2.36936931282558
H   -0.52106142969210      0.55441709081130      3.58920998119874
H   -0.27081664407327      2.77986221819143      2.50481385642083
H   -0.69708130969707      2.98922003814477      0.06520196811850
H   -1.97084793956711      1.12572407333402     -0.96646204649548
H   -0.36375489433344     -0.26269417783765     -1.90301560903784
H   -0.49995635163063      2.16233671640041     -2.58078758951248
H   1.07179114197054      1.40592812020579     -2.93081444341159
H   0.92610025917608      2.51379963853449     -1.56099668269050
H   1.92795311420351      1.78127547443001      0.36284970751076
H   3.84486601841872      0.76008011292938      1.52497768424426
H   4.30559806476201     -1.67605388292834      1.29170575906072
H   2.84286639293219     -3.07454441889828     -0.15844724015623
H   0.92802830604757     -2.05727633548632     -1.33932622424249
*
