35
 energy: -43.879432848875 gnorm: 0.000394817090 xtb: 6.7.1 (edcfbbe)
C            1.34593544613807        1.76968519083512        0.52725524261454
C            1.12753695561542        1.15644900165168       -0.84754424107633
C            1.49807301075648       -0.35529584531838       -0.88630952208940
C            2.95328919488581       -0.50027044458417       -0.58424134862708
C            3.42065483683558       -1.15185629563513        0.50623251756685
C            2.53921403731093       -1.79475248393669        1.38861759148717
C            1.17188769741066       -1.82279371580008        1.09430398383095
C            0.63313666043834       -1.18850018309469        0.01303955621834
C           -0.83755222902350       -1.35796892804489       -0.29940972771836
C           -1.06929732817001       -1.76414999589654       -1.75652999882830
C           -1.63207817309932       -0.13815623589734        0.13334643790615
C           -2.37135696103823        0.64799210135501       -0.74031936898765
C           -3.07370637518334        1.74954298966846       -0.27903682917247
C           -3.05290688871542        2.08285098537997        1.06264507762423
C           -2.32936582265832        1.29938369104631        1.94587494139410
C           -1.62990460502550        0.20079316338038        1.48368361855769
H            2.38679957886898        1.67512452111664        0.82815103542870
H            0.72718046858951        1.27078010870280        1.26843777245145
H            1.08028579109079        2.82464813616956        0.51348566212862
H            0.08502336162427        1.27957507296461       -1.13997100296842
H            1.74968561959699        1.67584442013702       -1.58037497583406
H            1.33222267742802       -0.66663356062445       -1.92992081531777
H            3.63078943063893       -0.01102422633777       -1.26936929251190
H            4.48392496450877       -1.19671981953706        0.69779506330958
H            2.91579558552319       -2.30453079207539        2.26083051341109
H            0.52571461629348       -2.40413090968662        1.74037405356988
H           -1.19622764498140       -2.18755899040720        0.32481688003695
H           -2.11674776533990       -2.01338613504102       -1.91281488558122
H           -0.47027316253425       -2.64349909278547       -1.98553634032649
H           -0.79346714332232       -0.97218824610042       -2.44765843435785
H           -2.41090828790859        0.41310291735628       -1.79261092508136
H           -3.64101844785611        2.34916611623839       -0.97656107191010
H           -3.60054718393561        2.94258222168204        1.41923767613958
H           -2.31160278698988        1.54442393083937        2.99790795972389
H           -1.07018912776853       -0.40852866771843        2.17927319698977
