! m062x def2-svp Opt TightSCF TightOpt CHELPG

%MaxCore 1900

%pal
 nprocs 8
end

%scf
 MaxIter 150
end

%geom
 MaxIter 150
end

* xyz 1 1
C           -1.39377879951311        0.59825054918518        1.84266430587286
C           -1.15065143445336       -0.87302505336959        1.54152933727742
C           -1.55893094396864       -1.25348271532704        0.08844163255717
C           -3.01965033999338       -1.00949891584695       -0.09205898224182
C           -3.50783678372279       -0.10450070277374       -0.97282520970763
C           -2.64644166245012        0.61549073727726       -1.81427659296096
C           -1.27254128210558        0.34804649086613       -1.79451768117407
C           -0.71480710306641       -0.55200491295992       -0.93612546135149
C            0.74720443187579       -0.91870865896922       -0.96405273341585
C            1.35359754980679       -0.87823898754005       -2.37329639068495
C            1.57301012997183       -0.03442589799317       -0.05053735896234
C            2.46973813185286       -0.59880972724269        0.84737497732917
C            3.24349438717688        0.19845341073757        1.67227564485567
C            3.13139331221071        1.57614923505806        1.60943143654717
C            2.24593712913147        2.14914979723796        0.71277252696175
C            1.47494927542788        1.34981177233110       -0.11190758455035
H           -1.11866078401600        0.82099137318778        2.87131938659103
H           -2.44200383571881        0.84962717677395        1.69901376704384
H           -0.79633467920260        1.22452533736728        1.18540915935557
H           -0.09563650144812       -1.10541913817454        1.69071628579170
H           -1.73437966303344       -1.48744896090472        2.23081174708847
H           -1.37103892712736       -2.33907538962417        0.01129399269447
H           -3.68143311057126       -1.57078671759965        0.55178355895438
H           -4.57391899128941        0.06138577142404       -1.04595927448973
H           -3.04381868799211        1.34214382811987       -2.50481275703554
H           -0.65260381795744        0.85911905802314       -2.51699372780725
H            0.83606305611382       -1.94897570240389       -0.59691220091995
H            0.73407430723308       -1.44169588640553       -3.06751684407096
H            1.44675391881925        0.14262044807689       -2.73342002019653
H            2.34901988221710       -1.31755632661490       -2.35505071493503
H            2.56466460547342       -1.67496219522473        0.90368434965762
H            3.93477013491826       -0.25805067547945        2.36600005434529
H            3.73186861979634        2.20026268861827        2.25468369670998
H            2.15404154563381        3.22420233285248        0.65643291188328
H            0.78408692996935        1.80643655731783       -0.80527523701233
*
