! m062x def2-svp Opt TightSCF TightOpt CHELPG

%MaxCore 1900

%pal
 nprocs 8
end

%scf
 MaxIter 150
end

%geom
 MaxIter 150
end

* xyz 1 1
C           -1.40865320742882        1.88188335925519       -0.41250597568272
C           -1.11321727348779        0.91182311697318       -1.54658697688591
C           -1.51207044956576       -0.55032611780084       -1.19170329286152
C           -2.98126326542208       -0.61219061043685       -0.93979077553789
C           -3.50483573169974       -0.95406229207284        0.26107968920728
C           -2.67287484365127       -1.33089641142741        1.32610101233290
C           -1.29010684817637       -1.42240558759337        1.12835586090467
C           -0.69728584582771       -1.09670775550850       -0.05506277843362
C            0.77699179490259       -1.27654481060790       -0.31369792637155
C            1.37698538679175       -2.48227430547735        0.42219974700810
C            1.57304103617879       -0.03768310408624        0.04678947453021
C            1.42446265688620        0.57507340248396        1.28450924935653
C            2.16853527749388        1.69434226994249        1.61170410006515
C            3.07719254680840        2.21612403169386        0.70702391690910
C            3.23958143573169        1.60801201435309       -0.52520591675040
C            2.49266036346608        0.48951553741705       -0.85057423180737
H           -2.46577419479870        1.86194316721366       -0.15814822063550
H           -1.13849832820981        2.89426679917872       -0.70495950859512
H           -0.83646904481154        1.61726219251418        0.47277454185162
H           -0.04998287435668        0.94587671543615       -1.78679074224321
H           -1.67202677431037        1.21040633270318       -2.43650087378034
H           -1.28511113383339       -1.13893962041999       -2.09823034337398
H           -3.62014723703137       -0.32889805399987       -1.76387016007830
H           -4.57647063633535       -0.95376131967689        0.40598459328857
H           -3.09860658507560       -1.59088544997890        2.28209970398300
H           -0.69146275270771       -1.79939235182899        1.94505562385051
H            0.90441729208352       -1.45079037053032       -1.38958744524653
H            2.38776976941041       -2.66359674950389        0.06215002790546
H            0.77612182894039       -3.37124588606176        0.24351444668401
H            1.43182195802425       -2.30374064221662        1.49254615778872
H            0.71518065205317        0.17802655576209        1.99572622864394
H            2.03737130975517        2.16241599883092        2.57661984751901
H            3.65664201202961        3.09121034160928        0.96178314812647
H            3.94928727016381        2.00542820601373       -1.23646527779115
H            2.62689443600927        0.02093139784914       -1.81633692387960
*
