35
Coordinates from ORCA-job orca_opt E -620.112833408576
  C      -3.362100     -1.245100     -1.091600
  C      -2.079000     -1.573000     -0.340700
  C      -1.535900     -0.398500      0.443300
  C      -1.531100     -0.427900      1.791500
  C      -1.061700      0.714800      2.533500
  C      -0.807800      1.984600      1.907100
  C      -0.784100      2.046200      0.567500
  C      -1.018300      0.832800     -0.334800
  C       0.199500      0.503200     -1.268300
  C       0.602900      1.695400     -2.153000
  C       1.419100     -0.089500     -0.568100
  C       2.239600      0.672800      0.276500
  C       3.351300      0.103100      0.902100
  C       3.662800     -1.237000      0.690200
  C       2.863000     -2.008300     -0.148100
  C       1.751200     -1.439000     -0.772900
  H      -3.188200     -0.509800     -1.883300
  H      -3.761800     -2.148800     -1.563200
  H      -4.127800     -0.849600     -0.415900
  H      -2.286400     -2.413200      0.334500
  H      -1.326800     -1.941500     -1.044500
  H      -1.888500     -1.283600      2.354700
  H      -0.969000      0.634500      3.610900
  H      -0.641600      2.857300      2.528000
  H      -0.605200      3.003300      0.087000
  H      -1.843500      1.145400     -0.990800
  H      -0.157500     -0.252000     -1.983100
  H      -0.263200      2.075300     -2.705600
  H       1.357500      1.391100     -2.887700
  H       1.027200      2.525000     -1.579100
  H       2.021500      1.720700      0.463400
  H       3.971600      0.708500      1.557400
  H       4.526500     -1.679300      1.178600
  H       3.102400     -3.054800     -0.315900
  H       1.143200     -2.063000     -1.423500
35
Coordinates from ORCA-job orca_opt E -620.122639670729
  C      -3.264236     -1.250440     -1.120569
  C      -1.967778     -1.550172     -0.357576
  C      -1.480355     -0.375063      0.431417
  C      -1.440810     -0.412256      1.799579
  C      -1.007068      0.718720      2.525404
  C      -0.737697      1.964647      1.898712
  C      -0.752130      2.025453      0.543509
  C      -1.030832      0.842943     -0.321951
  C       0.153801      0.509890     -1.285092
  C       0.544060      1.711463     -2.155010
  C       1.342973     -0.093371     -0.565199
  C       2.155206      0.669977      0.281878
  C       3.250385      0.095828      0.926859
  C       3.548197     -1.252532      0.733905
  C       2.748590     -2.022921     -0.108001
  C       1.653547     -1.446154     -0.750913
  H      -3.113645     -0.493916     -1.904623
  H      -3.626195     -2.163527     -1.608839
  H      -4.052186     -0.894341     -0.443008
  H      -2.132579     -2.401097      0.317876
  H      -1.187599     -1.869552     -1.067306
  H      -1.736126     -1.299461      2.361197
  H      -0.894085      0.635749      3.609804
  H      -0.521919      2.836919      2.515942
  H      -0.549561      2.976937      0.043493
  H      -1.878948      1.151004     -0.966787
  H      -0.229759     -0.251435     -1.981133
  H      -0.328995      2.108844     -2.695032
  H       1.287622      1.400465     -2.899277
  H       0.989303      2.530231     -1.572281
  H       1.949659      1.732164      0.442401
  H       3.877287      0.707022      1.577218
  H       4.406743     -1.700918      1.235181
  H       2.980187     -3.076299     -0.270198
  H       1.044741     -2.064698     -1.415484
35
Coordinates from ORCA-job orca_opt E -620.124997330746
  C      -3.200524     -1.252406     -1.150084
  C      -1.944678     -1.563366     -0.316667
  C      -1.463469     -0.377469      0.449754
  C      -1.429034     -0.392440      1.831752
  C      -1.033423      0.745224      2.537660
  C      -0.735941      1.969972      1.901025
  C      -0.745497      2.011952      0.537453
  C      -1.039960      0.834492     -0.291423
  C       0.141494      0.513984     -1.295165
  C       0.516532      1.731952     -2.141178
  C       1.325137     -0.100768     -0.576479
  C       2.136995      0.658220      0.274380
  C       3.226515      0.078724      0.921884
  C       3.521801     -1.270576      0.724783
  C       2.729323     -2.032166     -0.132005
  C       1.640928     -1.448657     -0.778952
  H      -2.994289     -0.526512     -1.951340
  H      -3.563523     -2.172852     -1.624339
  H      -4.008177     -0.855064     -0.519704
  H      -2.149304     -2.383848      0.384228
  H      -1.142060     -1.914326     -0.983545
  H      -1.704412     -1.287013      2.393178
  H      -0.975854      0.690172      3.629203
  H      -0.496708      2.847751      2.502753
  H      -0.513072      2.946468      0.017959
  H      -1.894599      1.133347     -0.938561
  H      -0.259315     -0.240581     -1.986030
  H      -0.362520      2.151082     -2.655037
  H       1.242611      1.422944     -2.904245
  H       0.987256      2.529250     -1.548925
  H       1.940509      1.723930      0.425055
  H       3.856692      0.688061      1.571896
  H       4.379028     -1.723413      1.225481
  H       2.965847     -3.082562     -0.309849
  H       1.045493     -2.053407     -1.468818
35
Coordinates from ORCA-job orca_opt E -620.125711926391
  C      -3.089600     -1.297430     -1.191267
  C      -1.892376     -1.575050     -0.265163
  C      -1.454944     -0.361782      0.485398
  C      -1.431530     -0.356154      1.872296
  C      -1.078028      0.801436      2.567980
  C      -0.754457      2.015097      1.922460
  C      -0.743674      2.038605      0.556619
  C      -1.048769      0.853240     -0.253620
  C       0.120194      0.534501     -1.298738
  C       0.490057      1.756705     -2.136503
  C       1.303567     -0.102467     -0.598369
  C       2.123831      0.635839      0.263230
  C       3.204795      0.034468      0.904564
  C       3.483976     -1.315883      0.690202
  C       2.685795     -2.055378     -0.180180
  C       1.605449     -1.450262     -0.821168
  H      -2.827069     -0.606385     -2.005943
  H      -3.423204     -2.236625     -1.649780
  H      -3.934992     -0.874428     -0.631258
  H      -2.137713     -2.366822      0.454399
  H      -1.047461     -1.946326     -0.866727
  H      -1.689569     -1.255980      2.432444
  H      -1.059837      0.767490      3.661024
  H      -0.512449      2.899628      2.511717
  H      -0.494923      2.960813      0.025857
  H      -1.907060      1.141332     -0.901380
  H      -0.310818     -0.211504     -1.981017
  H      -0.394706      2.207916     -2.610029
  H       1.177742      1.436617     -2.930372
  H       1.009470      2.527983     -1.552466
  H       1.939373      1.701195      0.426143
  H       3.840576      0.627010      1.563966
  H       4.331874     -1.786832      1.189149
  H       2.910089     -3.105457     -0.373070
  H       1.006191     -2.035009     -1.524300
35
Coordinates from ORCA-job orca_opt E -620.126164031962
  C      -3.034859     -1.282966     -1.234252
  C      -1.928103     -1.577554     -0.209065
  C      -1.470406     -0.360324      0.523840
  C      -1.452035     -0.335481      1.912301
  C      -1.093928      0.830002      2.596046
  C      -0.736571      2.029805      1.939485
  C      -0.716869      2.035825      0.573176
  C      -1.049367      0.845313     -0.220038
  C       0.103777      0.512233     -1.299960
  C       0.456998      1.732605     -2.143007
  C       1.299005     -0.117968     -0.613636
  C       2.088279      0.614423      0.281801
  C       3.177637      0.022660      0.917464
  C       3.499218     -1.310890      0.661059
  C       2.736586     -2.041733     -0.247158
  C       1.646174     -1.446942     -0.881709
  H      -2.670149     -0.651014     -2.056849
  H      -3.388135     -2.224178     -1.673241
  H      -3.892686     -0.786042     -0.760920
  H      -2.262233     -2.322778      0.523760
  H      -1.060806     -2.014253     -0.730428
  H      -1.732298     -1.227582      2.473198
  H      -1.108687      0.816756      3.689058
  H      -0.479598      2.918082      2.515521
  H      -0.444833      2.943293      0.030352
  H      -1.902696      1.136647     -0.872735
  H      -0.351418     -0.236593     -1.964106
  H      -0.436649      2.202537     -2.578652
  H       1.105800      1.402131     -2.965239
  H       1.017842      2.488398     -1.577847
  H       1.868360      1.667037      0.478396
  H       3.786069      0.609732      1.606399
  H       4.351450     -1.775147      1.158136
  H       2.995686     -3.076439     -0.474908
  H       1.079248     -2.019496     -1.620141
35
Coordinates from ORCA-job orca_opt E -620.126343095684
  C      -2.949022     -1.311628     -1.265648
  C      -1.901087     -1.572517     -0.174233
  C      -1.473599     -0.340693      0.552878
  C      -1.459914     -0.305066      1.939029
  C      -1.112568      0.869517      2.614977
  C      -0.769343      2.068469      1.948089
  C      -0.740884      2.061610      0.582980
  C      -1.060219      0.860617     -0.201653
  C       0.087689      0.520594     -1.285991
  C       0.444503      1.739887     -2.129363
  C       1.282289     -0.124114     -0.613642
  C       2.083615      0.590591      0.285804
  C       3.176653     -0.015859      0.901045
  C       3.489778     -1.346321      0.620129
  C       2.714453     -2.059799     -0.290887
  C       1.620369     -1.450269     -0.905513
  H      -2.539048     -0.705850     -2.086393
  H      -3.279623     -2.265731     -1.694236
  H      -3.830646     -0.800544     -0.855550
  H      -2.273536     -2.299890      0.558196
  H      -1.003434     -2.021201     -0.633760
  H      -1.738073     -1.194746      2.504798
  H      -1.131704      0.865752      3.707830
  H      -0.529668      2.966352      2.516542
  H      -0.480654      2.968028      0.032387
  H      -1.912983      1.137801     -0.860203
  H      -0.381598     -0.224020     -1.944767
  H      -0.449232      2.225814     -2.547090
  H       1.073633      1.406027     -2.965553
  H       1.027299      2.483247     -1.569246
  H       1.871657      1.641235      0.499809
  H       3.794892      0.557463      1.592791
  H       4.344117     -1.822289      1.102184
  H       2.964806     -3.092900     -0.534869
  H       1.040883     -2.009467     -1.644768
35
Coordinates from ORCA-job orca_opt E -620.126522896089
  C      -2.969764     -1.322376     -1.258666
  C      -1.905260     -1.562401     -0.179793
  C      -1.476763     -0.330483      0.547403
  C      -1.439665     -0.301671      1.930115
  C      -1.081685      0.870889      2.604474
  C      -0.770062      2.075978      1.932662
  C      -0.759365      2.071737      0.568677
  C      -1.065051      0.866863     -0.216938
  C       0.090346      0.521663     -1.282037
  C       0.457424      1.739511     -2.125751
  C       1.280244     -0.123809     -0.604665
  C       2.071306      0.581918      0.310773
  C       3.164383     -0.027127      0.923465
  C       3.487499     -1.350934      0.623811
  C       2.720030     -2.056568     -0.299882
  C       1.625348     -1.444552     -0.911465
  H      -2.584552     -0.711601     -2.087396
  H      -3.290949     -2.282511     -1.680812
  H      -3.855218     -0.826213     -0.838016
  H      -2.263123     -2.295932      0.554360
  H      -1.002886     -2.002265     -0.642436
  H      -1.711326     -1.190614      2.500623
  H      -1.065504      0.859670      3.697393
  H      -0.536638      2.975941      2.500773
  H      -0.516960      2.982968      0.016827
  H      -1.915155      1.136609     -0.881281
  H      -0.372215     -0.224358     -1.942535
  H      -0.432946      2.228001     -2.548745
  H       1.090965      1.408437     -2.959633
  H       1.037002      2.481400     -1.559607
  H       1.850919      1.627537      0.541092
  H       3.774523      0.538777      1.628540
  H       4.342136     -1.828626      1.103851
  H       2.975389     -3.086184     -0.553483
  H       1.047377     -1.999574     -1.655595
35
Coordinates from ORCA-job orca_opt E -620.126597666567
  C      -2.949049     -1.323293     -1.272416
  C      -1.913895     -1.555614     -0.165188
  C      -1.483230     -0.322418      0.557426
  C      -1.434581     -0.290824      1.939940
  C      -1.069350      0.882294      2.607888
  C      -0.760016      2.084078      1.929426
  C      -0.760163      2.076092      0.565144
  C      -1.072442      0.869726     -0.213369
  C       0.080255      0.514507     -1.278579
  C       0.448543      1.729563     -2.125781
  C       1.270864     -0.129565     -0.602584
  C       2.047869      0.568869      0.330247
  C       3.143843     -0.038522      0.939025
  C       3.485109     -1.352404      0.616397
  C       2.731931     -2.050176     -0.324864
  C       1.633074     -1.440377     -0.931298
  H      -2.542747     -0.725579     -2.101004
  H      -3.266915     -2.286823     -1.689281
  H      -3.841471     -0.817087     -0.878911
  H      -2.295329     -2.277295      0.569113
  H      -1.001266     -2.008732     -0.595499
  H      -1.703365     -1.177908      2.514811
  H      -1.039009      0.872873      3.700595
  H      -0.518910      2.984849      2.493156
  H      -0.516144      2.983887      0.008233
  H      -1.921357      1.137373     -0.880132
  H      -0.386692     -0.234118     -1.933213
  H      -0.441698      2.225020     -2.541216
  H       1.072848      1.395828     -2.965488
  H       1.038010      2.465794     -1.562481
  H       1.812837      1.607247      0.578553
  H       3.742129      0.520816      1.659410
  H       4.342834     -1.828276      1.092808
  H       3.001618     -3.071763     -0.595689
  H       1.065665     -1.987943     -1.689078
35
Coordinates from ORCA-job orca_opt E -620.126614268286
  C      -2.954666     -1.324645     -1.267838
  C      -1.914012     -1.556090     -0.165933
  C      -1.481014     -0.322952      0.554763
  C      -1.428430     -0.290676      1.938118
  C      -1.064735      0.883498      2.604146
  C      -0.760559      2.085850      1.924741
  C      -0.763360      2.077544      0.559958
  C      -1.075281      0.870295     -0.216731
  C       0.081175      0.515429     -1.278833
  C       0.452268      1.730922     -2.124164
  C       1.270393     -0.129628     -0.600646
  C       2.045225      0.566675      0.335534
  C       3.140299     -0.041924      0.944652
  C       3.483523     -1.354441      0.618197
  C       2.733208     -2.049592     -0.327310
  C       1.634739     -1.438956     -0.933302
  H      -2.556630     -0.723278     -2.097893
  H      -3.270946     -2.288645     -1.684962
  H      -3.847373     -0.823322     -0.868431
  H      -2.290197     -2.279239      0.569778
  H      -1.001451     -2.006865     -0.598876
  H      -1.693179     -1.177908      2.514698
  H      -1.036350      0.876151      3.697048
  H      -0.520271      2.987189      2.488131
  H      -0.521390      2.985459      0.002295
  H      -1.924081      1.135467     -0.884657
  H      -0.383331     -0.233041     -1.935570
  H      -0.436456      2.227891     -2.541146
  H       1.078436      1.397460     -2.962511
  H       1.040895      2.465510     -1.557866
  H       1.810244      1.604683      0.585010
  H       3.736528      0.515298      1.668458
  H       4.341351     -1.830707      1.094146
  H       3.005450     -3.069444     -0.602140
  H       1.069778     -1.983869     -1.694765
35
Coordinates from ORCA-job orca_opt E -620.126617487734
  C      -2.953361     -1.327911     -1.266704
  C      -1.912404     -1.556274     -0.165171
  C      -1.480574     -0.321918      0.553995
  C      -1.423696     -0.289377      1.937757
  C      -1.063242      0.886530      2.602256
  C      -0.761871      2.089262      1.922113
  C      -0.767066      2.080830      0.557203
  C      -1.079470      0.872602     -0.218138
  C       0.080424      0.517021     -1.278076
  C       0.454323      1.732265     -2.122702
  C       1.268770     -0.129379     -0.599229
  C       2.043193      0.564516      0.339046
  C       3.137574     -0.046066      0.947488
  C       3.481012     -1.357704      0.617648
  C       2.731457     -2.050223     -0.330412
  C       1.633247     -1.437992     -0.935096
  H      -2.560098     -0.723226     -2.096516
  H      -3.265070     -2.292940     -1.685003
  H      -3.848647     -0.832115     -0.866105
  H      -2.286127     -2.280105      0.571115
  H      -0.997612     -2.004903     -0.596073
  H      -1.683630     -1.177127      2.515666
  H      -1.033471      0.880112      3.695123
  H      -0.521694      2.990753      2.485301
  H      -0.526838      2.988860     -0.000909
  H      -1.927320      1.135461     -0.887570
  H      -0.382826     -0.231128     -1.936126
  H      -0.432959      2.231725     -2.539715
  H       1.080303      1.397848     -2.960783
  H       1.044200      2.464634     -1.554817
  H       1.809202      1.602313      0.589892
  H       3.732973      0.508663      1.673881
  H       4.338527     -1.835126      1.092970
  H       3.004253     -3.069134     -0.608036
  H       1.068318     -1.980650     -1.698172
35
Coordinates from ORCA-job orca_opt E -620.126619725287
  C      -2.953748     -1.327526     -1.267971
  C      -1.913757     -1.556049     -0.165964
  C      -1.481335     -0.321841      0.553256
  C      -1.420468     -0.290684      1.936922
  C      -1.059349      0.885042      2.601388
  C      -0.760173      2.088709      1.921670
  C      -0.768517      2.081471      0.556896
  C      -1.081890      0.873380     -0.218496
  C       0.079901      0.517080     -1.277479
  C       0.454494      1.731794     -2.122730
  C       1.268095     -0.128876     -0.598160
  C       2.042882      0.565395      0.339518
  C       3.137335     -0.045138      0.947939
  C       3.480461     -1.356974      0.618688
  C       2.730445     -2.049948     -0.328701
  C       1.632109     -1.437870     -0.933270
  H      -2.561313     -0.720672     -2.096510
  H      -3.263528     -2.292334     -1.688254
  H      -3.850243     -0.834146     -0.867152
  H      -2.287758     -2.279815      0.570193
  H      -0.998310     -2.004887     -0.595646
  H      -1.678643     -1.178936      2.514796
  H      -1.028284      0.878235      3.694192
  H      -0.519502      2.989771      2.485277
  H      -0.530086      2.990097     -0.000939
  H      -1.928358      1.135621     -0.889388
  H      -0.382890     -0.231428     -1.935435
  H      -0.432375      2.232139     -2.539488
  H       1.079765      1.396194     -2.960874
  H       1.045431      2.463511     -1.555121
  H       1.809202      1.603382      0.589810
  H       3.732970      0.509665      1.674062
  H       4.337943     -1.834241      1.094185
  H       3.002956     -3.069105     -0.605652
  H       1.066340     -1.980915     -1.695463
35
Coordinates from ORCA-job orca_opt E -620.126623540993
  C      -2.957003     -1.325179     -1.272484
  C      -1.919092     -1.555839     -0.169561
  C      -1.483712     -0.322891      0.550528
  C      -1.413501     -0.296145      1.933766
  C      -1.049233      0.878068      2.599184
  C      -0.754489      2.084154      1.921335
  C      -0.771638      2.080994      0.556936
  C      -1.087270      0.874132     -0.219515
  C       0.079293      0.517167     -1.276158
  C       0.454227      1.731342     -2.122272
  C       1.267228     -0.126980     -0.595269
  C       2.045120      0.570621      0.337359
  C       3.139815     -0.038891      0.946471
  C       3.479855     -1.352956      0.623278
  C       2.726593     -2.049482     -0.318980
  C       1.628222     -1.438439     -0.924413
  H      -2.564909     -0.713696     -2.097668
  H      -3.263748     -2.288781     -1.697795
  H      -3.855442     -0.835916     -0.871117
  H      -2.294765     -2.279030      0.566264
  H      -1.003600     -2.006620     -0.597536
  H      -1.668265     -1.185934      2.510716
  H      -1.011627      0.868416      3.691731
  H      -0.511287      2.983526      2.486474
  H      -0.537423      2.991400      0.000304
  H      -1.929829      1.135765     -0.894438
  H      -0.382195     -0.232202     -1.934024
  H      -0.432221      2.232135     -2.539237
  H       1.079094      1.393947     -2.960024
  H       1.045887      2.462783     -1.555096
  H       1.813740      1.610190      0.582983
  H       3.738176      0.518375      1.668423
  H       4.337458     -1.829186      1.099547
  H       2.996815     -3.070526     -0.591157
  H       1.059527     -1.984220     -1.682457
35
Coordinates from ORCA-job orca_opt E -620.126631443710
  C      -2.967302     -1.317272     -1.287083
  C      -1.935432     -1.555233     -0.181172
  C      -1.489944     -0.327062      0.541966
  C      -1.393050     -0.314030      1.923592
  C      -1.016228      0.854007      2.592682
  C      -0.735339      2.067386      1.921168
  C      -0.779192      2.077191      0.557957
  C      -1.100988      0.874940     -0.222590
  C       0.077968      0.517825     -1.273568
  C       0.451507      1.731481     -2.121309
  C       1.265250     -0.120617     -0.587764
  C       2.053316      0.588325      0.327731
  C       3.147920     -0.017655      0.940695
  C       3.476859     -1.339644      0.639781
  C       2.713111     -2.048144     -0.285104
  C       1.615715     -1.440416     -0.895285
  H      -2.573169     -0.696322     -2.104047
  H      -3.268858     -2.277254     -1.724225
  H      -3.869357     -0.835026     -0.885619
  H      -2.317374     -2.276076      0.553735
  H      -1.021419     -2.013390     -0.605171
  H      -1.638884     -1.208601      2.496902
  H      -0.958622      0.834725      3.684186
  H      -0.484052      2.961533      2.490937
  H      -0.557475      2.993162      0.005469
  H      -1.933278      1.135945     -0.907853
  H      -0.380008     -0.234169     -1.930847
  H      -0.434883      2.230727     -2.539922
  H       1.077188      1.391345     -2.957429
  H       1.042219      2.464254     -1.555013
  H       1.829857      1.633330      0.556625
  H       3.755435      0.548597      1.647809
  H       4.334284     -1.812677      1.119490
  H       2.975129     -3.075705     -0.540263
  H       1.038895     -1.995381     -1.640360
35
Coordinates from ORCA-job orca_opt E -620.126645445895
  C      -2.994188     -1.296307     -1.322088
  C      -1.975436     -1.553798     -0.210600
  C      -1.504104     -0.338734      0.520553
  C      -1.345940     -0.359811      1.895955
  C      -0.937743      0.791786      2.574510
  C      -0.688181      2.022585      1.921000
  C      -0.794803      2.064810      0.563039
  C      -1.131560      0.875370     -0.229207
  C       0.075797      0.519622     -1.267672
  C       0.443470      1.732596     -2.119157
  C       1.261948     -0.104353     -0.570188
  C       2.076679      0.632465      0.299143
  C       3.170683      0.035911      0.922682
  C       3.470182     -1.304953      0.682121
  C       2.679225     -2.042778     -0.196148
  C       1.584851     -1.443898     -0.819559
  H      -2.593267     -0.656653     -2.120882
  H      -3.287742     -2.246904     -1.784598
  H      -3.902103     -0.825761     -0.920589
  H      -2.372386     -2.268945      0.522009
  H      -1.067380     -2.030646     -0.627924
  H      -1.572125     -1.266232      2.458433
  H      -0.832062      0.747579      3.661599
  H      -0.416693      2.903361      2.502032
  H      -0.601816      2.994461      0.022993
  H      -1.940053      1.136940     -0.936785
  H      -0.374017     -0.238860     -1.923051
  H      -0.443941      2.224793     -2.543165
  H       1.073318      1.387862     -2.950463
  H       1.028569      2.471166     -1.554971
  H       1.874314      1.690379      0.482825
  H       3.802046      0.624414      1.589481
  H       4.326873     -1.769806      1.170969
  H       2.919561     -3.085844     -0.405814
  H       0.987825     -2.021716     -1.530386
35
Coordinates from ORCA-job orca_opt E -620.126627616102
  C      -3.023124     -1.272734     -1.357042
  C      -2.016874     -1.551680     -0.240936
  C      -1.516231     -0.351948      0.497892
  C      -1.295936     -0.409088      1.863333
  C      -0.852805      0.723725      2.550731
  C      -0.636097      1.972301      1.918470
  C      -0.807466      2.048704      0.569508
  C      -1.160176      0.874212     -0.235293
  C       0.074318      0.521463     -1.263191
  C       0.432258      1.734850     -2.117731
  C       1.259457     -0.087145     -0.553784
  C       2.100336      0.676292      0.266766
  C       3.192277      0.090418      0.904181
  C       3.461456     -1.266944      0.730248
  C       2.644066     -2.032747     -0.098797
  C       1.553992     -1.444291     -0.738602
  H      -2.611280     -0.621379     -2.140590
  H      -3.315477     -2.213519     -1.839860
  H      -3.932987     -0.805202     -0.956904
  H      -2.430020     -2.259438      0.490184
  H      -1.118311     -2.050280     -0.653976
  H      -1.502332     -1.328322      2.412359
  H      -0.695906      0.652191      3.630087
  H      -0.343535      2.839131      2.510075
  H      -0.645078      2.992916      0.044895
  H      -1.946061      1.137973     -0.962512
  H      -0.368374     -0.243719     -1.915607
  H      -0.457815      2.215522     -2.548618
  H       1.069088      1.388733     -2.943356
  H       1.007180      2.482456     -1.555494
  H       1.919116      1.745119      0.401596
  H       3.845970      0.699871      1.529263
  H       4.316175     -1.723034      1.230683
  H       2.862221     -3.089375     -0.259003
  H       0.937778     -2.044930     -1.412876
35
Coordinates from ORCA-job orca_opt E -620.126720368955
  C      -3.014775     -1.278262     -1.347986
  C      -2.006606     -1.551526     -0.230528
  C      -1.509220     -0.348942      0.504532
  C      -1.305562     -0.395070      1.873168
  C      -0.865384      0.741001      2.557221
  C      -0.643246      1.984144      1.917340
  C      -0.800205      2.050651      0.565126
  C      -1.148660      0.872297     -0.233969
  C       0.075742      0.520908     -1.269364
  C       0.429779      1.737036     -2.120425
  C       1.260601     -0.092255     -0.562385
  C       2.088298      0.663168      0.278835
  C       3.177977      0.074841      0.917615
  C       3.458843     -1.277659      0.723374
  C       2.655189     -2.034903     -0.126507
  C       1.566429     -1.443967     -0.766392
  H      -2.595211     -0.646259     -2.143574
  H      -3.320675     -2.223384     -1.813275
  H      -3.917077     -0.791156     -0.953608
  H      -2.420148     -2.256957      0.502987
  H      -1.109611     -2.050919     -0.644823
  H      -1.517194     -1.311139      2.425789
  H      -0.715202      0.675198      3.637975
  H      -0.355396      2.856107      2.503953
  H      -0.632482      2.991013      0.034831
  H      -1.944036      1.135095     -0.953858
  H      -0.371323     -0.242300     -1.921177
  H      -0.462606      2.213159     -2.551923
  H       1.069726      1.398174     -2.946623
  H       0.999237      2.487736     -1.556802
  H       1.896988      1.727959      0.431062
  H       3.819076      0.678447      1.561266
  H       4.311791     -1.736766      1.224273
  H       2.882145     -3.087073     -0.302877
  H       0.962596     -2.038294     -1.457151
35
Coordinates from ORCA-job orca_opt E -620.126797106518
  C      -3.025176     -1.266419     -1.357546
  C      -2.023614     -1.549151     -0.236280
  C      -1.509298     -0.354304      0.498203
  C      -1.285634     -0.409586      1.864031
  C      -0.831709      0.720340      2.548886
  C      -0.625887      1.968258      1.913570
  C      -0.804245      2.044268      0.563504
  C      -1.154370      0.869075     -0.237151
  C       0.077678      0.519647     -1.271181
  C       0.423170      1.736904     -2.122096
  C       1.260893     -0.088827     -0.558036
  C       2.089394      0.672625      0.277219
  C       3.177175      0.088580      0.923079
  C       3.456137     -1.266263      0.741237
  C       2.652795     -2.029295     -0.103778
  C       1.565479     -1.442755     -0.749725
  H      -2.589528     -0.656624     -2.162215
  H      -3.353617     -2.210484     -1.809218
  H      -3.915545     -0.751177     -0.971343
  H      -2.449051     -2.246978      0.498312
  H      -1.134334     -2.064521     -0.647476
  H      -1.489529     -1.329676      2.413145
  H      -0.659227      0.645277      3.625760
  H      -0.332821      2.838242      2.500876
  H      -0.649360      2.989339      0.037497
  H      -1.947970      1.130296     -0.959744
  H      -0.367883     -0.247033     -1.920128
  H      -0.472715      2.199067     -2.561569
  H       1.073290      1.405717     -2.943489
  H       0.977573      2.498015     -1.557505
  H       1.900097      1.739069      0.419151
  H       3.816703      0.697159      1.563711
  H       4.308008     -1.722905      1.246425
  H       2.878884     -3.082863     -0.272589
  H       0.964038     -2.042920     -1.437436
35
Coordinates from ORCA-job orca_opt E -620.126894382015
  C      -3.043597     -1.238851     -1.385053
  C      -2.062162     -1.544545     -0.252709
  C      -1.512384     -0.367475      0.482194
  C      -1.238176     -0.448593      1.838962
  C      -0.755965      0.666884      2.527112
  C      -0.585875      1.927827      1.907712
  C      -0.815142      2.030121      0.565639
  C      -1.172227      0.864241     -0.242411
  C       0.079601      0.518275     -1.271232
  C       0.407843      1.735599     -2.124769
  C       1.260091     -0.077570     -0.545131
  C       2.098339      0.699778      0.265841
  C       3.183396      0.125468      0.925019
  C       3.450487     -1.236430      0.780548
  C       2.638400     -2.015589     -0.041271
  C       1.553623     -1.438914     -0.699442
  H      -2.572358     -0.684351     -2.209807
  H      -3.425966     -2.177396     -1.804565
  H      -3.903205     -0.658636     -1.020804
  H      -2.515566     -2.225402      0.482079
  H      -1.188431     -2.095093     -0.652338
  H      -1.421350     -1.379643      2.377173
  H      -0.537508      0.569726      3.593832
  H      -0.279676      2.790649      2.499302
  H      -0.688074      2.987300      0.054191
  H      -1.960389      1.123674     -0.970365
  H      -0.360672     -0.257333     -1.913367
  H      -0.494164      2.167703     -2.581921
  H       1.079036      1.418325     -2.934710
  H       0.930267      2.518576     -1.559728
  H       1.919318      1.771375      0.377273
  H       3.827550      0.747028      1.548399
  H       4.300775     -1.687005      1.294024
  H       2.855904     -3.074738     -0.184347
  H       0.948057     -2.054883     -1.369232
35
Coordinates from ORCA-job orca_opt E -620.126927726512
  C      -3.038142     -1.235574     -1.391610
  C      -2.065598     -1.543715     -0.253101
  C      -1.515853     -0.367603      0.483408
  C      -1.237829     -0.451084      1.839449
  C      -0.757830      0.664738      2.528424
  C      -0.587818      1.926665      1.910259
  C      -0.817821      2.030734      0.568783
  C      -1.176396      0.865199     -0.240118
  C       0.077386      0.516820     -1.267353
  C       0.405962      1.732383     -2.123429
  C       1.259148     -0.077306     -0.541991
  C       2.101602      0.701686      0.262835
  C       3.189099      0.128113      0.918787
  C       3.454352     -1.234246      0.776978
  C       2.637905     -2.015177     -0.038883
  C       1.550819     -1.439308     -0.693936
  H      -2.559853     -0.689670     -2.217659
  H      -3.426171     -2.173610     -1.807226
  H      -3.895294     -0.646975     -1.034974
  H      -2.525056     -2.223281      0.479087
  H      -1.189655     -2.096844     -0.644870
  H      -1.418212     -1.383154      2.376818
  H      -0.540322      0.567189      3.595274
  H      -0.280917      2.788667      2.502600
  H      -0.689561      2.988420      0.058719
  H      -1.964587      1.124723     -0.967470
  H      -0.361965     -0.260316     -1.908193
  H      -0.495950      2.164058     -2.581127
  H       1.077208      1.413645     -2.932731
  H       0.928469      2.515887     -1.559206
  H       1.924356      1.773867      0.371589
  H       3.836822      0.750677      1.537404
  H       4.306559     -1.683981      1.287917
  H       2.853832     -3.074985     -0.179516
  H       0.941112     -2.056543     -1.358837
35
Coordinates from ORCA-job orca_opt E -620.126951795185
  C      -3.032959     -1.230819     -1.403296
  C      -2.072326     -1.542923     -0.257156
  C      -1.519266     -0.369006      0.481506
  C      -1.224457     -0.460771      1.833356
  C      -0.741538      0.653029      2.523006
  C      -0.577964      1.919041      1.910132
  C      -0.821243      2.029743      0.572555
  C      -1.185980      0.867103     -0.238563
  C       0.072520      0.516765     -1.263203
  C       0.400974      1.730611     -2.122671
  C       1.255626     -0.073493     -0.537745
  C       2.103575      0.709248      0.257405
  C       3.192115      0.136885      0.912964
  C       3.451590     -1.227374      0.781926
  C       2.628168     -2.012839     -0.022671
  C       1.540728     -1.438290     -0.678200
  H      -2.545357     -0.693202     -2.228823
  H      -3.426862     -2.167279     -1.817178
  H      -3.887853     -0.633784     -1.055615
  H      -2.539652     -2.219690      0.472531
  H      -1.194510     -2.101007     -0.638614
  H      -1.396781     -1.396093      2.367553
  H      -0.516008      0.551500      3.587723
  H      -0.266720      2.777978      2.504406
  H      -0.697784      2.990147      0.066646
  H      -1.971797      1.126971     -0.966812
  H      -0.364643     -0.262593     -1.902467
  H      -0.500600      2.162435     -2.580559
  H       1.071675      1.408125     -2.930972
  H       0.924722      2.514286     -1.560012
  H       1.929054      1.782475      0.360189
  H       3.845445      0.761832      1.523105
  H       4.304168     -1.675520      1.293486
  H       2.839166     -3.074877     -0.153569
  H       0.924574     -2.058514     -1.334263
35
Coordinates from ORCA-job orca_opt E -620.126952786781
  C      -3.031055     -1.230152     -1.401302
  C      -2.069941     -1.543765     -0.255712
  C      -1.518728     -0.369316      0.483609
  C      -1.232547     -0.458115      1.837402
  C      -0.753336      0.657090      2.527600
  C      -0.584465      1.921724      1.913056
  C      -0.819435      2.029580      0.573826
  C      -1.182545      0.865920     -0.236799
  C       0.073192      0.515763     -1.263087
  C       0.401465      1.729333     -2.123239
  C       1.257357     -0.074890     -0.539355
  C       2.105034      0.707426      0.256459
  C       3.194575      0.135039      0.910383
  C       3.455345     -1.228692      0.776874
  C       2.632373     -2.013625     -0.028732
  C       1.544077     -1.438985     -0.682795
  H      -2.541946     -0.694955     -2.227593
  H      -3.428342     -2.165809     -1.813788
  H      -3.883758     -0.630081     -1.053488
  H      -2.537109     -2.221062      0.473530
  H      -1.192247     -2.100856     -0.638596
  H      -1.408403     -1.392317      2.372423
  H      -0.534405      0.557766      3.593918
  H      -0.275450      2.781529      2.507200
  H      -0.691877      2.988654      0.066387
  H      -1.970055      1.126361     -0.963472
  H      -0.364373     -0.263289     -1.902440
  H      -0.500263      2.161430     -2.580563
  H       1.071412      1.405870     -2.931763
  H       0.926224      2.513023     -1.561476
  H       1.929632      1.780363      0.361003
  H       3.847931      0.759613      1.520893
  H       4.308672     -1.676793      1.287227
  H       2.844352     -3.075257     -0.161366
  H       0.928439     -2.058426     -1.340124
35
Coordinates from ORCA-job orca_opt E -620.126953655501
  C      -3.032241     -1.230382     -1.401303
  C      -2.070947     -1.543618     -0.255822
  C      -1.518749     -0.369273      0.483013
  C      -1.229889     -0.458663      1.836186
  C      -0.749501      0.656333      2.525846
  C      -0.582919      1.921446      1.911643
  C      -0.820572      2.029693      0.572898
  C      -1.183625      0.866041     -0.237586
  C       0.073080      0.516042     -1.262994
  C       0.401659      1.729683     -2.122984
  C       1.256850     -0.074584     -0.538591
  C       2.103939      0.707574      0.258015
  C       3.193185      0.135073      0.912337
  C       3.454299     -1.228547      0.778366
  C       2.632022     -2.013297     -0.028150
  C       1.543983     -1.438572     -0.682500
  H      -2.543174     -0.695374     -2.227775
  H      -3.429764     -2.166007     -1.813604
  H      -3.884851     -0.630203     -1.053403
  H      -2.538132     -2.220267      0.474048
  H      -1.193517     -2.101337     -0.638450
  H      -1.404612     -1.393098      2.371174
  H      -0.527895      0.556613      3.591591
  H      -0.273445      2.781121      2.505752
  H      -0.694606      2.989013      0.065483
  H      -1.970350      1.125947     -0.965203
  H      -0.364003     -0.263045     -1.902666
  H      -0.499866      2.161972     -2.580524
  H       1.071734      1.405852     -2.931254
  H       0.926482      2.513227     -1.561075
  H       1.928348      1.780424      0.362867
  H       3.846047      0.759406      1.523638
  H       4.307481     -1.676634      1.288994
  H       2.844411     -3.074796     -0.161152
  H       0.928938     -2.057663     -1.340711
35
Coordinates from ORCA-job orca_opt E -620.126953643253
  C      -3.033115     -1.230231     -1.401583
  C      -2.071541     -1.543707     -0.256450
  C      -1.518669     -0.369528      0.482217
  C      -1.227027     -0.459838      1.834734
  C      -0.745355      0.654769      2.524078
  C      -0.580932      1.920528      1.910544
  C      -0.821442      2.029550      0.572367
  C      -1.184767      0.866125     -0.238166
  C       0.072813      0.516447     -1.263025
  C       0.401446      1.730167     -2.122927
  C       1.256375     -0.073966     -0.538170
  C       2.103330      0.708349      0.258449
  C       3.192085      0.135766      0.913568
  C       3.452800     -1.228005      0.780402
  C       2.630677     -2.012924     -0.026145
  C       1.543150     -1.438158     -0.681220
  H      -2.543823     -0.695651     -2.228187
  H      -3.431402     -2.165594     -1.813714
  H      -3.885256     -0.629505     -1.053472
  H      -2.538564     -2.220041      0.473850
  H      -1.194462     -2.101760     -0.639327
  H      -1.400207     -1.394766      2.369369
  H      -0.521061      0.554417      3.589210
  H      -0.270817      2.779862      2.504814
  H      -0.697081      2.989220      0.065202
  H      -1.970848      1.125724     -0.966462
  H      -0.363755     -0.262694     -1.903016
  H      -0.499956      2.162337     -2.580788
  H       1.071791      1.405928     -2.930814
  H       0.926100      2.513800     -1.560997
  H       1.927953      1.781275      0.362850
  H       3.844866      0.760080      1.524978
  H       4.305598     -1.676054      1.291706
  H       2.842866     -3.074544     -0.158447
  H       0.928028     -2.057276     -1.339326
