35
 energy: -43.881080102448 gnorm: 0.000326287187 xtb: 6.7.1 (edcfbbe)
C           -3.22791051723028        0.61102366210451       -0.41209078260320
C           -2.05872393455228        0.15484475051258       -1.27292944964993
C           -1.08402941428749       -0.77234472427306       -0.49012015692845
C           -1.76228591667718       -2.07264071370586       -0.21597382592259
C           -2.00968305979477       -2.52355627832248        1.03665692663669
C           -1.58259573429982       -1.79778479766430        2.15806882458979
C           -0.83914012540897       -0.62314866088422        1.98437984601719
C           -0.55482878581256       -0.11391455238587        0.75375936039529
C            0.31776386885960        1.09434501444441        0.52838630537326
C            0.79430615149965        1.78925263100139        1.80677880733992
C            1.52587146419483        0.70042826859479       -0.29627368339743
C            2.30044084370961       -0.38998125960275        0.08183687660257
C            3.41422371921287       -0.75036117747441       -0.65358144783842
C            3.76974161501176       -0.02439619962439       -1.77847048783722
C            3.00540299799254        1.06347036083562       -2.16138301818944
C            1.89042626306551        1.42262718572768       -1.42356363235117
H           -3.91506034957753        1.21952663672374       -0.99630859412887
H           -2.87581164362568        1.19862747490670        0.43272659523039
H           -3.76843122535143       -0.24897171486603       -0.02408898936084
H           -1.51213134901158        1.02035443836521       -1.65027693289342
H           -2.43386458866695       -0.39920813009042       -2.13604236395129
H           -0.24015973577996       -0.95241399236224       -1.17851859795881
H           -2.08467390045231       -2.63406851558914       -1.08101101280496
H           -2.53215148437983       -3.45897201524147        1.18281752387188
H           -1.79423514356212       -2.15824891120327        3.15204517680847
H           -0.47479728114682       -0.12757420801336        2.87206514636942
H           -0.25573068563549        1.83150271253945       -0.04754584545541
H            1.41378169527529        1.12482929319793        2.40392419516568
H            1.39144944913676        2.65990716784641        1.54194728378089
H           -0.05196783945954        2.12193629792006        2.40356267380524
H            2.01679598610002       -0.96375812160121        0.95260565326917
H            4.00622957917224       -1.60169403025651       -0.35033499313326
H            4.63810362546510       -0.30730165881866       -2.35512098526721
H            3.27584633815277        1.63367404391096       -3.03839660673224
H            1.29782911786484        2.27398972334584       -1.72972978885055
