35
 energy: -43.878976664634 gnorm: 0.000187748758 xtb: 6.7.1 (edcfbbe)
C            2.73057138730869        1.01264351685813       -0.55049554193462
C            1.52595172736072        1.17385023980516        0.36601740795680
C            0.94021573747755       -0.19665849025215        0.81555188379763
C            1.96400672956670       -0.91658346736739        1.62841212232177
C            2.52854923391112       -2.08328954982717        1.23761986636399
C            2.11699213173884       -2.72067827602946        0.05663903711131
C            1.05618767287557       -2.18276534563269       -0.67871238029738
C            0.44229099377050       -1.01245129693281       -0.33983757766684
C           -0.76579291211350       -0.55576174636328       -1.13178114574984
C           -0.34954666243131        0.17225303552613       -2.41754185736222
C           -1.73833926014452        0.21512953918657       -0.27018131330156
C           -2.02081961786576        1.56329659083721       -0.43602736261753
C           -2.91898007278068        2.20503572997764        0.40186506647987
C           -3.54855715239737        1.51085307783601        1.41820046891808
C           -3.27810894942852        0.16320030025071        1.59157091873273
C           -2.38381240905885       -0.47466573703786        0.75418641773856
H            3.53335755283312        0.49302144380335       -0.03258893019378
H            2.46930489617005        0.43319360622319       -1.43236860526501
H            3.09733037848040        1.98657054024212       -0.86892094118720
H            1.82196194102638        1.72498542473836        1.26150749530963
H            0.74300222605045        1.74742089134936       -0.12996788531973
H            0.08677910512163        0.05850096695080        1.46514771579052
H            2.27388239861351       -0.42953558638427        2.54179392119697
H            3.29483380033645       -2.54517639661756        1.84484628650282
H            2.57938702369141       -3.64349275017193       -0.25471538561940
H            0.69191634755862       -2.73756266218598       -1.53458265551214
H           -1.28956937861812       -1.46730399425402       -1.45300887493345
H            0.20974326879433        1.07868867692240       -2.20787306210505
H            0.28210014312994       -0.48265857272697       -3.01396399865851
H           -1.23005694159599        0.42821383087146       -3.00374774950539
H           -1.55038196324458        2.12986003337910       -1.22484276232191
H           -3.12668210961686        3.25549369772231        0.25629562876598
H           -4.24792658252440        2.01363768374152        2.06977530939729
H           -3.76702210889367       -0.39107359535866        2.37966317193272
H           -2.17296857509843       -1.52649135907487        0.89196531123578
