35
 energy: -43.878973500409 gnorm: 0.000393568287 xtb: 6.7.1 (edcfbbe)
C            1.63812346622180        2.28890406019575       -0.25956738088323
C            1.18828070239049        1.17729594363484       -1.20786751623911
C            1.50098767844929       -0.20790013484750       -0.71903616099625
C            2.75792766309221       -0.55386975028543       -0.31624996718543
C            3.11414289867175       -1.87565031234625       -0.02674854325679
C            2.20144399665264       -2.90461215353645       -0.30317161988394
C            0.93661293675685       -2.62157155961955       -0.69889536511156
C            0.40294988423379       -1.22900860085645       -0.70043554121386
C           -0.48840805927998       -1.01845703610248        0.58815255576329
C           -1.43209762201139       -2.20069896164416        0.82592886218261
C           -1.29788721812263        0.24649391476470        0.52163788056663
C           -2.24254347162188        0.44699719667026       -0.48074447339081
C           -3.00346769205254        1.60048503707928       -0.51752143537534
C           -2.83889468331980        2.57501835737722        0.45259436450657
C           -1.91419111911962        2.38151473840198        1.46344925118778
C           -1.15335302412858        1.22597905876061        1.49686630387148
H            1.34784635176248        3.25753139899579       -0.66025260549717
H            1.16936363767766        2.16621232740745        0.71299038325535
H            2.71659481505879        2.28350095315453       -0.12791169876851
H            1.68824491952806        1.32308513991574       -2.17300978874824
H            0.11543262247089        1.27454099365672       -1.37971658144785
H            3.52949266710680        0.20224741907762       -0.27320166144078
H            4.11302123345193       -2.10778995943752        0.30642694429377
H            2.53322852889545       -3.93209057222304       -0.24350240041629
H            0.25936832600440       -3.41163106615831       -0.98446452331280
H           -0.25950198804384       -1.08532115119656       -1.56344594528754
H            0.20201133581367       -0.95532258796652        1.43567076795977
H           -2.03321652953325       -2.40562977275902       -0.05665810078456
H           -2.10473948619048       -1.96579342287964        1.64918498630461
H           -0.87205603827156       -3.09521119668853        1.08506600996976
H           -2.38647069447532       -0.30414599375868       -1.24450255528108
H           -3.72957893489138        1.73982821877785       -1.30562283316103
H           -3.43217922431658        3.47697518859518        0.42246710731993
H           -1.78497217271404        3.13227813752893        2.22965274174098
H           -0.44121570614564        1.07611614831258        2.29693853875979
