35
 energy: -43.879092527551 gnorm: 0.000812845283 xtb: 6.7.1 (edcfbbe)
C            3.10732988997415        0.33833367575944       -2.44686675521504
C            2.50014456593788        1.11763128842316       -1.27236641855118
C            1.99072314037397        0.16110589946816       -0.23848526672510
C            2.83097896871373       -0.38220998606490        0.69060828038024
C            2.45971898690637       -1.48438324400699        1.46752531840613
C            1.26199969517101       -2.15727743560108        1.16910853471496
C            0.38411240979440       -1.64686855739656        0.27246954289590
C            0.56122177843271       -0.27246960764489       -0.28331229533356
C           -0.33646983601590        0.67774160540140        0.60761608065280
C           -0.21411501555465        2.15229763452968        0.23179318755843
C           -1.76846962824863        0.22157724444135        0.53452594299886
C           -2.51063337731066        0.35891473236358       -0.63326515278462
C           -3.82326336011393       -0.07204326220368       -0.69304440314570
C           -4.41713531683307       -0.65309460387936        0.41457615759596
C           -3.68704089722551       -0.80063647113419        1.58109339970978
C           -2.37443693409212       -0.36741073428199        1.63798233873440
H            3.47187839582741        1.02347629226510       -3.20902951755406
H            2.36070861036991       -0.31450391703069       -2.89406648379993
H            3.93568316836517       -0.27744648533379       -2.10476752276964
H            3.27050394629648        1.76257274329637       -0.84267769399493
H            1.69660102289447        1.74616401653998       -1.65531511261328
H            3.83814084682364        0.00451357957615        0.78315313767053
H            3.13558045156230       -1.87952725051872        2.20905420474002
H            1.06831655851859       -3.11371617195879        1.63460169312038
H           -0.52245343121798       -2.17264440867828        0.01426073069775
H            0.17087567768228       -0.20822623565183       -1.30489932527969
H            0.02057992306455        0.55665451696307        1.63554840422988
H            0.79124817760224        2.51498080954929        0.42769825637486
H           -0.45177717232889        2.31908587708894       -0.81566576019110
H           -0.91175022714536        2.73358314335190        0.83238412000238
H           -2.06228532527235        0.80393090036246       -1.50959862310090
H           -4.38530491632032        0.04399373309513       -1.60856629436947
H           -5.44211037519990       -0.99013407153674        0.36733514836311
H           -4.14097950693996       -1.25451610491090        2.45000301830042
H           -1.80832089449170       -0.48934914464297        2.55078912828349
