35
 energy: -43.880468182435 gnorm: 0.000232208852 xtb: 6.7.1 (edcfbbe)
C           -2.26639632570256       -0.06845088889431        2.21446979569518
C           -1.23056443630239        0.72941898927241        1.41285549819790
C           -1.43217462335363        0.51801361031278       -0.05435320205626
C           -2.19504643908749        1.37400044361798       -0.79388865229409
C           -2.59091570276064        1.07337848895841       -2.10242019554638
C           -2.34201130229600       -0.21161962022399       -2.61016183431741
C           -1.57221837561310       -1.09202678296829       -1.92406501360136
C           -0.81313325417860       -0.67675215912743       -0.71012644831938
C            0.66347471633322       -0.31166641879933       -1.15327141808753
C            1.27763904857378       -1.41616286388850       -2.01529662530042
C            1.53845510535758       -0.02777803339921        0.03337149439936
C            1.99499636228046        1.26324308049220        0.27625567200089
C            2.81003035480141        1.53612414747512        1.36013267422899
C            3.18387120001102        0.51932245830782        2.22189060342449
C            2.73550471405328       -0.77060517137712        1.99170609427491
C            1.92063320700437       -1.04106589970143        0.90799669670748
H           -2.16713902855153       -1.13272217214849        2.01410809492906
H           -2.12642118251576        0.09695054941205        3.28018300441599
H           -3.27363291931970        0.23818429730004        1.94188855369487
H           -0.23247867534854        0.41213275899564        1.71752810481519
H           -1.34100126802604        1.78946564534201        1.65129725738134
H           -2.55883833732244        2.28552604567196       -0.33803027142942
H           -3.17616330359123        1.77938298826712       -2.66974339871355
H           -2.81348707765881       -0.51025785324872       -3.53631303583030
H           -1.43794791234876       -2.10272955786502       -2.27730918110277
H           -0.72787880424279       -1.50784863389675       -0.00119857023141
H            0.58474383367736        0.59644535146773       -1.75951874708191
H            2.33036080347590       -1.19925847358274       -2.18777769930808
H            1.20394138129833       -2.38540926941775       -1.52842848473212
H            0.77678909791498       -1.47295787333277       -2.97798460496231
H            1.70346716616674        2.06182320840772       -0.39123049987495
H            3.15532652347667        2.54524928690521        1.53229994419950
H            3.82082087846594        0.72985010889501        3.06828593613017
H            3.02202715959982       -1.56954141943935        2.66050993840756
H            1.57526741572895       -2.05175836778755        0.74623851988589
