! m062x def2-svp Opt TightSCF TightOpt CHELPG

%MaxCore 1900

%pal
 nprocs 8
end

%scf
 MaxIter 150
end

%geom
 MaxIter 150
end

* xyz 1 1
C            3.21826027369818        1.41344112228086       -0.86593401297589
C            2.58488740798328        0.08104903515719       -1.27932165655513
C            1.94698864019810       -0.64895676740662       -0.13233776118290
C            2.70834242197358       -1.19528754491298        0.85886642359691
C            2.15495601048314       -1.95781075136648        1.89197664335427
C            0.78106364975127       -2.24485768253483        1.87665353643605
C           -0.02962349045430       -1.72996018434159        0.92068499947870
C            0.45673443812725       -0.77011813410995       -0.10754996808213
C           -0.20975358129307        0.64697423897330        0.11228929606225
C            0.15303319686233        1.20409898042340        1.48403546881356
C           -1.68896065877867        0.54321153955402       -0.13738210298897
C           -2.15705849371004        0.62645406977482       -1.44593703422883
C           -3.50298704767868        0.49962283560073       -1.73334825522479
C           -4.41201672567260        0.28453863296909       -0.71140237295729
C           -3.96051805628287        0.19940230109220        0.59386311461803
C           -2.61199342237116        0.32536505666139        0.87876223521768
H            3.95838134254821        1.25733434672604       -0.08513105361918
H            3.71008057168815        1.87553624484787       -1.71939785661318
H            2.46578223985974        2.10219091402659       -0.48977097762105
H            1.84636512530467        0.26205301106942       -2.06330659795703
H            3.37074364099328       -0.55054572458468       -1.70555389266236
H            3.78250746203789       -1.06622707724311        0.82910703457121
H            2.78755748706041       -2.36623087329931        2.66367289247868
H            0.37524818578021       -2.90676385479209        2.62946178348220
H           -1.08206850125418       -1.97064340041489        0.89466546149602
H            0.10375643728225       -1.09176040281337       -1.10086517712361
H            0.20838422744376        1.30949346253946       -0.65244099046668
H           -0.36647717133250        2.14467002986808        1.65716375539864
H            1.22458731325429        1.38048138578880        1.54125249485654
H           -0.10750673526339        0.50519979215847        2.27409207139825
H           -1.45458226454046        0.79755348022748       -2.25084269266555
H           -3.84410683052212        0.57014982604443       -2.75620371003183
H           -5.46472820231932        0.18518690868527       -0.93142277622353
H           -4.66293643497647        0.03183236591888        1.39781593458899
H           -2.28234245587931        0.25322281743103        1.90348574333481
*
