35
Coordinates from ORCA-job orca_opt E -620.112266081812
  C       3.057100      1.950400     -0.227800
  C       2.317600      1.507300      1.027400
  C       1.886300      0.059000      0.986500
  C       2.781000     -0.928200      1.193500
  C       2.337400     -2.298600      1.238200
  C       0.943900     -2.651300      1.305700
  C       0.027000     -1.692400      1.109100
  C       0.380400     -0.234500      0.809100
  C      -0.156400      0.224700     -0.588300
  C       0.440100     -0.575400     -1.759300
  C      -1.683300      0.303200     -0.613000
  C      -2.313600      1.438500     -0.074100
  C      -3.705300      1.549600     -0.062500
  C      -4.489900      0.526300     -0.586400
  C      -3.883000     -0.607900     -1.119600
  C      -2.490300     -0.720100     -1.131900
  H       3.349300      3.001800     -0.138400
  H       3.967800      1.362500     -0.382900
  H       2.433400      1.851800     -1.121000
  H       1.448400      2.155900      1.187700
  H       2.968400      1.665300      1.897100
  H       3.835800     -0.728100      1.352000
  H       3.079500     -3.084500      1.327400
  H       0.666000     -3.676800      1.521000
  H      -1.027900     -1.944400      1.174000
  H      -0.130200      0.351700      1.587700
  H       0.179700      1.257700     -0.754900
  H       1.529500     -0.472600     -1.791600
  H       0.213500     -1.644300     -1.696700
  H       0.050600     -0.209300     -2.716200
  H      -1.719400      2.249400      0.342300
  H      -4.175600      2.435300      0.356200
  H      -5.573200      0.611300     -0.577900
  H      -4.493900     -1.409700     -1.526200
  H      -2.050700     -1.623600     -1.546300
35
Coordinates from ORCA-job orca_opt E -620.122198005275
  C       3.032561      1.871782     -0.298558
  C       2.281351      1.500156      0.986309
  C       1.839948      0.067064      1.011869
  C       2.739174     -0.943511      1.223662
  C       2.292030     -2.281524      1.288603
  C       0.911498     -2.622809      1.284541
  C      -0.000743     -1.640773      1.072925
  C       0.377189     -0.218949      0.826951
  C      -0.137553      0.271004     -0.566378
  C       0.482181     -0.514328     -1.724647
  C      -1.656570      0.321381     -0.588852
  C      -2.305983      1.426345     -0.023021
  C      -3.696898      1.508302     -0.010183
  C      -4.460177      0.480157     -0.561772
  C      -3.826533     -0.626154     -1.124052
  C      -2.433224     -0.705913     -1.135437
  H       3.342524      2.923414     -0.257735
  H       3.936157      1.260064     -0.426939
  H       2.403804      1.741590     -1.189754
  H       1.413849      2.163145      1.118617
  H       2.939718      1.676845      1.851579
  H       3.803888     -0.747227      1.362749
  H       3.033207     -3.079129      1.388795
  H       0.616965     -3.658016      1.457218
  H      -1.069656     -1.877423      1.071427
  H      -0.152043      0.372947      1.599536
  H       0.199077      1.313173     -0.684725
  H       1.577681     -0.407889     -1.733615
  H       0.252962     -1.589023     -1.678220
  H       0.103418     -0.132846     -2.681627
  H      -1.721646      2.243485      0.410247
  H      -4.186001      2.378871      0.427997
  H      -5.548878      0.542811     -0.555818
  H      -4.418814     -1.431907     -1.559095
  H      -1.964463     -1.585117     -1.582695
35
Coordinates from ORCA-job orca_opt E -620.125022005051
  C       3.072014      1.804372     -0.340252
  C       2.268817      1.503883      0.939150
  C       1.814091      0.083055      1.019908
  C       2.713885     -0.939761      1.262951
  C       2.261877     -2.255336      1.369215
  C       0.892522     -2.601522      1.292432
  C      -0.015592     -1.614735      1.038040
  C       0.382709     -0.218075      0.824756
  C      -0.137740      0.304684     -0.576684
  C       0.492768     -0.462893     -1.735985
  C      -1.655056      0.331169     -0.584356
  C      -2.315698      1.399134      0.032481
  C      -3.706352      1.454479      0.064308
  C      -4.457332      0.435401     -0.522978
  C      -3.809314     -0.632617     -1.140847
  C      -2.415234     -0.685451     -1.169777
  H       3.403526      2.850352     -0.329394
  H       3.964721      1.167206     -0.411082
  H       2.469134      1.652290     -1.245561
  H       1.404779      2.179993      1.014746
  H       2.909036      1.701428      1.814424
  H       3.778445     -0.735344      1.395719
  H       2.996602     -3.047857      1.540893
  H       0.588994     -3.638579      1.439041
  H      -1.083872     -1.844499      0.960008
  H      -0.167597      0.384564      1.580538
  H       0.195509      1.351520     -0.646331
  H       1.588371     -0.356587     -1.735947
  H       0.262078     -1.537799     -1.707146
  H       0.114162     -0.064671     -2.686952
  H      -1.736651      2.209167      0.488493
  H      -4.205557      2.298545      0.542308
  H      -5.547254      0.478498     -0.504792
  H      -4.390330     -1.427485     -1.611008
  H      -1.930459     -1.526529     -1.670419
35
Coordinates from ORCA-job orca_opt E -620.125553439556
  C       3.116597      1.798549     -0.334480
  C       2.277699      1.515472      0.926004
  C       1.814958      0.096973      1.011483
  C       2.714145     -0.927704      1.270566
  C       2.258112     -2.239554      1.407131
  C       0.891826     -2.594034      1.304703
  C      -0.016365     -1.612226      1.026369
  C       0.387555     -0.217950      0.813237
  C      -0.148980      0.307305     -0.597701
  C       0.477694     -0.472227     -1.749271
  C      -1.666028      0.328096     -0.591211
  C      -2.324550      1.379324      0.057036
  C      -3.714943      1.429764      0.101495
  C      -4.467686      0.423249     -0.505145
  C      -3.822310     -0.625693     -1.156956
  C      -2.428200     -0.673780     -1.199882
  H       3.461157      2.840052     -0.316664
  H       4.001488      1.148532     -0.378239
  H       2.534105      1.651601     -1.253506
  H       1.416660      2.196768      0.974252
  H       2.900183      1.714566      1.813492
  H       3.777176     -0.715224      1.401227
  H       2.990570     -3.026683      1.609722
  H       0.587855     -3.631583      1.444467
  H      -1.080442     -1.844373      0.915535
  H      -0.173127      0.397345      1.552329
  H       0.184836      1.353201     -0.660209
  H       1.573354     -0.374658     -1.749712
  H       0.238605     -1.544692     -1.711077
  H       0.099558     -0.078618     -2.702639
  H      -1.742670      2.180234      0.525150
  H      -4.212767      2.260266      0.603868
  H      -5.557405      0.462311     -0.475784
  H      -4.404644     -1.408934     -1.644448
  H      -1.944016     -1.495673     -1.731238
35
Coordinates from ORCA-job orca_opt E -620.125692745836
  C       3.136408      1.784948     -0.343031
  C       2.287754      1.519306      0.913432
  C       1.817419      0.103550      1.008099
  C       2.713741     -0.923126      1.270407
  C       2.252893     -2.233821      1.420992
  C       0.884843     -2.586313      1.323138
  C      -0.020102     -1.605988      1.033043
  C       0.389657     -0.212680      0.814037
  C      -0.155481      0.314207     -0.604305
  C       0.478840     -0.466382     -1.749977
  C      -1.671922      0.327452     -0.594320
  C      -2.334043      1.359777      0.082098
  C      -3.724490      1.404344      0.128813
  C      -4.474073      0.410638     -0.502292
  C      -3.826319     -0.618520     -1.181788
  C      -2.431930     -0.660474     -1.228940
  H       3.491557      2.822723     -0.327661
  H       4.014216      1.125400     -0.377248
  H       2.556641      1.639192     -1.264075
  H       1.430228      2.205412      0.948708
  H       2.905205      1.722593      1.803089
  H       3.776606     -0.708202      1.394883
  H       2.981423     -3.019157      1.640962
  H       0.576456     -3.621103      1.470417
  H      -1.083674     -1.834873      0.917399
  H      -0.173552      0.416991      1.537727
  H       0.176473      1.360850     -0.658594
  H       1.574143     -0.369982     -1.742020
  H       0.238101     -1.537958     -1.709759
  H       0.107636     -0.075119     -2.707140
  H      -1.754298      2.151061      0.568212
  H      -4.225282      2.220443      0.651003
  H      -5.563636      0.444257     -0.468948
  H      -4.406180     -1.392324     -1.686481
  H      -1.945257     -1.467123     -1.779982
35
Coordinates from ORCA-job orca_opt E -620.125757234030
  C       3.138361      1.796035     -0.334586
  C       2.289838      1.521577      0.919535
  C       1.818773      0.104916      1.004073
  C       2.714357     -0.922928      1.261295
  C       2.252436     -2.233145      1.413556
  C       0.882774     -2.582181      1.324515
  C      -0.021278     -1.600595      1.038391
  C       0.390957     -0.209567      0.813394
  C      -0.156171      0.310072     -0.612432
  C       0.476465     -0.482495     -1.750435
  C      -1.671404      0.324368     -0.598065
  C      -2.331380      1.355439      0.083396
  C      -3.721527      1.402071      0.132027
  C      -4.473387      0.411376     -0.501389
  C      -3.828293     -0.616666     -1.184647
  C      -2.433963     -0.660500     -1.234398
  H       3.497652      2.832162     -0.308567
  H       4.013644      1.133727     -0.376822
  H       2.556553      1.662388     -1.256062
  H       1.432529      2.207695      0.959048
  H       2.905956      1.719063      1.811349
  H       3.777246     -0.707144      1.383333
  H       2.980643     -3.020534      1.626281
  H       0.571811     -3.615635      1.475367
  H      -1.085945     -1.826270      0.926973
  H      -0.174737      0.431146      1.524062
  H       0.179213      1.355391     -0.670758
  H       1.571965     -0.392102     -1.740151
  H       0.229251     -1.552175     -1.700431
  H       0.110152     -0.098292     -2.712405
  H      -1.749970      2.145018      0.570347
  H      -4.220875      2.218051      0.655763
  H      -5.562819      0.446485     -0.466106
  H      -4.409744     -1.389106     -1.689508
  H      -1.949082     -1.467647     -1.786042
35
Coordinates from ORCA-job orca_opt E -620.125809513226
  C       3.132654      1.797209     -0.336806
  C       2.291389      1.521377      0.921495
  C       1.819010      0.104723      1.006885
  C       2.714051     -0.925194      1.252113
  C       2.250759     -2.235440      1.402674
  C       0.878679     -2.579021      1.326491
  C      -0.024616     -1.594120      1.051935
  C       0.389933     -0.204731      0.823613
  C      -0.155019      0.309678     -0.609757
  C       0.481656     -0.486184     -1.742963
  C      -1.669453      0.322872     -0.596663
  C      -2.331491      1.352157      0.086228
  C      -3.721557      1.398739      0.131529
  C      -4.471883      0.409954     -0.507060
  C      -3.825176     -0.616180     -1.191295
  C      -2.430644     -0.660095     -1.237446
  H       3.497082      2.831532     -0.309218
  H       4.004862      1.131555     -0.388662
  H       2.543517      1.670401     -1.254553
  H       1.434380      2.207920      0.965392
  H       2.910396      1.718796      1.811277
  H       3.778337     -0.711369      1.364925
  H       2.978880     -3.026618      1.600638
  H       0.564987     -3.611283      1.479812
  H      -1.091257     -1.815439      0.950992
  H      -0.177088      0.446187      1.521964
  H       0.182251      1.354593     -0.667640
  H       1.577080     -0.397056     -1.727241
  H       0.232222     -1.555149     -1.690311
  H       0.121473     -0.104912     -2.708374
  H      -1.751760      2.140563      0.577156
  H      -4.222680      2.213156      0.655924
  H      -5.561382      0.445312     -0.474650
  H      -4.405097     -1.387380     -1.699738
  H      -1.944496     -1.466553     -1.788765
35
Coordinates from ORCA-job orca_opt E -620.125867659758
  C       3.124313      1.803825     -0.334562
  C       2.294290      1.520441      0.929341
  C       1.818871      0.104145      1.011103
  C       2.712787     -0.931408      1.231136
  C       2.246380     -2.241345      1.373315
  C       0.870795     -2.575090      1.320416
  C      -0.031549     -1.582456      1.072219
  C       0.387241     -0.195883      0.841878
  C      -0.152303      0.308438     -0.603075
  C       0.489369     -0.492044     -1.729586
  C      -1.665911      0.320503     -0.593466
  C      -2.331244      1.354252      0.079611
  C      -3.721262      1.400757      0.118899
  C      -4.468811      0.407296     -0.516249
  C      -3.818945     -0.623465     -1.190296
  C      -2.424187     -0.667230     -1.230023
  H       3.497698      2.834825     -0.300565
  H       3.991013      1.132462     -0.404486
  H       2.523967      1.692065     -1.247063
  H       1.438564      2.208143      0.984536
  H       2.919305      1.712714      1.816202
  H       3.779816     -0.723523      1.329202
  H       2.973479     -3.038506      1.550486
  H       0.553270     -3.606384      1.473175
  H      -1.101488     -1.796481      0.990857
  H      -0.180984      0.468224      1.524239
  H       0.187163      1.352627     -0.662325
  H       1.584654     -0.401814     -1.709372
  H       0.239520     -1.560719     -1.673089
  H       0.134168     -0.115447     -2.698645
  H      -1.754409      2.146531      0.567993
  H      -4.225232      2.218119      0.635972
  H      -5.558492      0.442914     -0.488902
  H      -4.396182     -1.398511     -1.696032
  H      -1.935664     -1.477975     -1.772940
35
Coordinates from ORCA-job orca_opt E -620.125911569503
  C       3.119606      1.809674     -0.330959
  C       2.297098      1.519288      0.936126
  C       1.817976      0.103973      1.014343
  C       2.710429     -0.937819      1.209156
  C       2.239900     -2.246755      1.346632
  C       0.861947     -2.572680      1.311540
  C      -0.039345     -1.572508      1.089850
  C       0.383758     -0.187772      0.861133
  C      -0.149704      0.307896     -0.594723
  C       0.497027     -0.493489     -1.717091
  C      -1.662977      0.318886     -0.590190
  C      -2.331680      1.359697      0.068140
  C      -3.721858      1.405025      0.101953
  C      -4.466108      0.403314     -0.524195
  C      -3.812642     -0.634672     -1.183720
  C      -2.417765     -0.677444     -1.217333
  H       3.503219      2.836648     -0.289326
  H       3.979606      1.131397     -0.416486
  H       2.510805      1.713970     -1.239784
  H       1.443366      2.208778      1.001518
  H       2.927444      1.705015      1.820838
  H       3.780126     -0.736873      1.291772
  H       2.965873     -3.049142      1.503964
  H       0.541557     -3.603811      1.459688
  H      -1.111656     -1.780599      1.026702
  H      -0.185063      0.486121      1.531150
  H       0.190456      1.351879     -0.653821
  H       1.591867     -0.398074     -1.696310
  H       0.251239     -1.562974     -1.659521
  H       0.141562     -0.119817     -2.687195
  H      -1.757872      2.157986      0.550236
  H      -4.228679      2.226951      0.608881
  H      -5.555932      0.438163     -0.501235
  H      -4.387000     -1.416134     -1.682862
  H      -1.926581     -1.494100     -1.748969
35
Coordinates from ORCA-job orca_opt E -620.125949782272
  C       3.118425      1.818239     -0.323454
  C       2.299767      1.518324      0.943822
  C       1.816598      0.104311      1.015329
  C       2.707636     -0.944184      1.183917
  C       2.232722     -2.251654      1.318155
  C       0.853160     -2.571377      1.300590
  C      -0.047208     -1.564327      1.104859
  C       0.380334     -0.181181      0.879332
  C      -0.147571      0.306561     -0.587049
  C       0.502669     -0.494934     -1.706600
  C      -1.660684      0.317068     -0.587602
  C      -2.331731      1.367667      0.051726
  C      -3.722263      1.411798      0.081063
  C      -4.463617      0.399362     -0.530712
  C      -3.807190     -0.648589     -1.171896
  C      -2.412373     -0.690620     -1.200338
  H       3.514170      2.840010     -0.269543
  H       3.970070      1.131489     -0.424439
  H       2.503554      1.742860     -1.230256
  H       1.448775      2.210085      1.020251
  H       2.934988      1.693612      1.827471
  H       3.779683     -0.750264      1.251609
  H       2.957416     -3.057482      1.463591
  H       0.530636     -3.602647      1.443166
  H      -1.121183     -1.767743      1.059140
  H      -0.188484      0.500190      1.539996
  H       0.192424      1.350566     -0.645751
  H       1.596816     -0.391331     -1.690490
  H       0.264532     -1.566028     -1.647884
  H       0.140828     -0.124441     -2.675654
  H      -1.760050      2.173574      0.523341
  H      -4.231067      2.240432      0.574901
  H      -5.553549      0.433357     -0.511301
  H      -4.379357     -1.438022     -1.660938
  H      -1.918875     -1.514684     -1.718448
35
Coordinates from ORCA-job orca_opt E -620.125961286086
  C       3.119598      1.821189     -0.320353
  C       2.300894      1.518024      0.945999
  C       1.816349      0.104624      1.014744
  C       2.707268     -0.945811      1.176142
  C       2.230995     -2.252620      1.312288
  C       0.851263     -2.572102      1.298186
  C      -0.049219     -1.563892      1.108274
  C       0.379668     -0.180882      0.884147
  C      -0.147568      0.306351     -0.584498
  C       0.502941     -0.494060     -1.704488
  C      -1.660784      0.316710     -0.586762
  C      -2.332343      1.371295      0.045034
  C      -3.723177      1.415075      0.072737
  C      -4.463440      0.398539     -0.532903
  C      -3.806132     -0.653538     -1.166872
  C      -2.411432     -0.695496     -1.193682
  H       3.520546      2.840550     -0.260472
  H       3.967336      1.130391     -0.426160
  H       2.503465      1.754226     -1.226993
  H       1.451416      2.211023      1.026550
  H       2.938169      1.688060      1.829295
  H       3.779872     -0.753750      1.238956
  H       2.955756     -3.058901      1.454449
  H       0.528783     -3.603626      1.438493
  H      -1.123239     -1.766979      1.065880
  H      -0.188311      0.500931      1.544916
  H       0.191528      1.350611     -0.642338
  H       1.596582     -0.385495     -1.693667
  H       0.270169     -1.566264     -1.645261
  H       0.134528     -0.124973     -2.671664
  H      -1.760907      2.180003      0.511831
  H      -4.232260      2.246731      0.561103
  H      -5.553375      0.432132     -0.514661
  H      -4.377888     -1.445816     -1.651708
  H      -1.917049     -1.522261     -1.706642
35
Coordinates from ORCA-job orca_opt E -620.125964839866
  C       3.119693      1.822693     -0.319432
  C       2.301610      1.517704      0.946856
  C       1.816540      0.104492      1.013920
  C       2.707471     -0.946366      1.173921
  C       2.230849     -2.252920      1.310939
  C       0.851025     -2.572473      1.298849
  C      -0.049437     -1.564355      1.108896
  C       0.379880     -0.181504      0.884258
  C      -0.147830      0.306528     -0.584361
  C       0.502469     -0.493909     -1.704472
  C      -1.661021      0.316776     -0.586835
  C      -2.332665      1.372349      0.043159
  C      -3.723636      1.416027      0.070397
  C      -4.463515      0.398550     -0.533775
  C      -3.806011     -0.654612     -1.165950
  C      -2.411388     -0.696631     -1.192367
  H       3.523248      2.840806     -0.256261
  H       3.965360      1.129851     -0.428168
  H       2.502402      1.760161     -1.225580
  H       1.452933      2.211324      1.029904
  H       2.940305      1.684815      1.829698
  H       3.780141     -0.754475      1.235715
  H       2.955644     -3.059030      1.453812
  H       0.528535     -3.603828      1.440181
  H      -1.123450     -1.767362      1.067017
  H      -0.187293      0.500159      1.545989
  H       0.190916      1.350900     -0.641709
  H       1.595872     -0.383197     -1.696509
  H       0.272226     -1.566586     -1.643876
  H       0.130680     -0.126378     -2.670981
  H      -1.761024      2.181579      0.508678
  H      -4.232625      2.248581      0.557312
  H      -5.553454      0.431936     -0.515882
  H      -4.377849     -1.447526     -1.649624
  H      -1.916601     -1.524078     -1.703821
35
Coordinates from ORCA-job orca_opt E -620.125966951715
  C       3.119021      1.822869     -0.320260
  C       2.302823      1.517072      0.947070
  C       1.816840      0.104143      1.013625
  C       2.707345     -0.947133      1.173204
  C       2.230090     -2.253353      1.311109
  C       0.850015     -2.572269      1.300250
  C      -0.049941     -1.563958      1.109719
  C       0.380011     -0.181355      0.884327
  C      -0.147876      0.307539     -0.584054
  C       0.502918     -0.492559     -1.704178
  C      -1.661005      0.317130     -0.586803
  C      -2.333280      1.372509      0.042862
  C      -3.724337      1.415540      0.069642
  C      -4.463459      0.397663     -0.534608
  C      -3.805308     -0.655398     -1.166368
  C      -2.410711     -0.696855     -1.192358
  H       3.525368      2.839740     -0.255189
  H       3.962508      1.127921     -0.432366
  H       2.499582      1.764101     -1.225170
  H       1.455041      2.211466      1.032549
  H       2.943398      1.682205      1.828914
  H       3.780116     -0.755602      1.234176
  H       2.954608     -3.059812      1.453314
  H       0.527028     -3.603283      1.442819
  H      -1.124057     -1.766395      1.068052
  H      -0.186370      0.500514      1.546563
  H       0.190489      1.352054     -0.640652
  H       1.596116     -0.379993     -1.697607
  H       0.274741     -1.565614     -1.642414
  H       0.129304     -0.126500     -2.670551
  H      -1.761892      2.181884      0.508383
  H      -4.233674      2.248030      0.556283
  H      -5.553417      0.430450     -0.517149
  H      -4.376838     -1.448571     -1.649964
  H      -1.915197     -1.524180     -1.703271
35
Coordinates from ORCA-job orca_opt E -620.125969407869
  C       3.117509      1.822948     -0.321818
  C       2.304308      1.516175      0.947295
  C       1.817097      0.103618      1.013571
  C       2.706936     -0.948242      1.172756
  C       2.228854     -2.254060      1.311169
  C       0.848436     -2.571803      1.301658
  C      -0.050751     -1.562975      1.110795
  C       0.380043     -0.180749      0.884603
  C      -0.147637      0.308832     -0.583635
  C       0.503932     -0.490843     -1.703660
  C      -1.660681      0.317610     -0.586774
  C      -2.333829      1.372498      0.042776
  C      -3.724946      1.414595      0.069139
  C      -4.463133      0.396286     -0.535439
  C      -3.804103     -0.656362     -1.167034
  C      -2.409513     -0.696931     -1.192581
  H       3.527723      2.838129     -0.254696
  H       3.958036      1.125188     -0.438796
  H       2.494876      1.769157     -1.224828
  H       1.457602      2.211497      1.035954
  H       2.947459      1.679239      1.827637
  H       3.779860     -0.757270      1.233003
  H       2.952845     -3.061063      1.452946
  H       0.524658     -3.602394      1.445516
  H      -1.125068     -1.764473      1.069534
  H      -0.185610      0.501594      1.546974
  H       0.190442      1.353488     -0.639323
  H       1.596904     -0.376184     -1.698101
  H       0.277967     -1.564305     -1.640494
  H       0.128878     -0.126570     -2.670145
  H      -1.762912      2.182057      0.508540
  H      -4.234834      2.246755      0.555774
  H      -5.553125      0.428262     -0.518457
  H      -4.375141     -1.449797     -1.650781
  H      -1.913083     -1.523904     -1.703177
35
Coordinates from ORCA-job orca_opt E -620.125970645874
  C       3.116245      1.822690     -0.323206
  C       2.305154      1.515624      0.947269
  C       1.817206      0.103314      1.013819
  C       2.706632     -0.948833      1.173238
  C       2.228111     -2.254464      1.311783
  C       0.847529     -2.571539      1.302316
  C      -0.051215     -1.562374      1.111177
  C       0.380021     -0.180307      0.884770
  C      -0.147368      0.309620     -0.583291
  C       0.504684     -0.489635     -1.703350
  C      -1.660395      0.317947     -0.586709
  C      -2.334093      1.372375      0.042996
  C      -3.725227      1.413891      0.069161
  C      -4.462882      0.395407     -0.535793
  C      -3.803300     -0.656808     -1.167543
  C      -2.408697     -0.696762     -1.192879
  H       3.529118      2.836731     -0.255176
  H       3.954753      1.122999     -0.443335
  H       2.491468      1.771974     -1.224914
  H       1.459068      2.211484      1.037764
  H       2.950022      1.677874      1.826490
  H       3.779628     -0.758163      1.233410
  H       2.951758     -3.061794      1.453481
  H       0.523307     -3.601959      1.446457
  H      -1.125632     -1.763376      1.069873
  H      -0.185387      0.502152      1.547240
  H       0.190600      1.354349     -0.638434
  H       1.597540     -0.373803     -1.698017
  H       0.279877     -1.563320     -1.639556
  H       0.129175     -0.126232     -2.669972
  H      -1.763564      2.182054      0.509046
  H      -4.235506      2.245721      0.555956
  H      -5.552896      0.426881     -0.519038
  H      -4.373981     -1.450338     -1.651565
  H      -1.911753     -1.523380     -1.703567
35
Coordinates from ORCA-job orca_opt E -620.125971169989
  C       3.115439      1.822503     -0.323978
  C       2.305308      1.515482      0.947173
  C       1.817202      0.103251      1.014087
  C       2.706551     -0.948877      1.174035
  C       2.228020     -2.254516      1.312468
  C       0.847446     -2.571524      1.302430
  C      -0.051239     -1.562314      1.111040
  C       0.380019     -0.180231      0.884733
  C      -0.147194      0.309745     -0.583176
  C       0.504952     -0.489360     -1.703288
  C      -1.660240      0.318058     -0.586698
  C      -2.334048      1.372223      0.043307
  C      -3.725170      1.413634      0.069464
  C      -4.462762      0.395267     -0.535823
  C      -3.803070     -0.656671     -1.167904
  C      -2.408449     -0.696478     -1.193218
  H       3.529646      2.835984     -0.255694
  H       3.952948      1.121826     -0.445490
  H       2.489736      1.773167     -1.225126
  H       1.459382      2.211472      1.038281
  H       2.950939      1.677771      1.825814
  H       3.779531     -0.758175      1.234570
  H       2.951584     -3.061862      1.454529
  H       0.523174     -3.601967      1.446341
  H      -1.125655     -1.763289      1.069493
  H      -0.185490      0.502091      1.547274
  H       0.190828      1.354470     -0.638199
  H       1.597795     -0.373290     -1.697768
  H       0.280319     -1.563083     -1.639410
  H       0.129596     -0.126088     -2.670007
  H      -1.763668      2.181861      0.509629
  H      -4.235561      2.245258      0.556501
  H      -5.552781      0.426649     -0.519069
  H      -4.373646     -1.450109     -1.652207
  H      -1.911443     -1.522879     -1.704213
35
Coordinates from ORCA-job orca_opt E -620.125971425264
  C       3.114992      1.822432     -0.324319
  C       2.305218      1.515539      0.947112
  C       1.817192      0.103312      1.014280
  C       2.706600     -0.948700      1.174695
  C       2.228200     -2.254407      1.313007
  C       0.847693     -2.571609      1.302370
  C      -0.051085     -1.562488      1.110785
  C       0.380052     -0.180331      0.884645
  C      -0.147122      0.309598     -0.583164
  C       0.504958     -0.489519     -1.703309
  C      -1.660192      0.318045     -0.586706
  C      -2.333925      1.372101      0.043554
  C      -3.725035      1.413617      0.069726
  C      -4.462735      0.395445     -0.535794
  C      -3.803121     -0.656369     -1.168140
  C      -2.408489     -0.696254     -1.193480
  H       3.529891      2.835623     -0.255946
  H       3.951986      1.121223     -0.446383
  H       2.488954      1.773746     -1.225273
  H       1.459277      2.211499      1.038336
  H       2.951161      1.678071      1.825469
  H       3.779535     -0.757854      1.235622
  H       2.951810     -3.061651      1.455419
  H       0.523529     -3.602129      1.445969
  H      -1.125462     -1.763627      1.068989
  H      -0.185624      0.501804      1.547251
  H       0.190972      1.354299     -0.638277
  H       1.597829     -0.373651     -1.697530
  H       0.280073     -1.563198     -1.639601
  H       0.129904     -0.126034     -2.670062
  H      -1.763571      2.181649      0.510074
  H      -4.235411      2.245151      0.556933
  H      -5.552750      0.426921     -0.518986
  H      -4.373705     -1.449681     -1.652640
  H      -1.911599     -1.522572     -1.704726
