35
 energy: -43.875129841514 gnorm: 0.000322283987 xtb: 6.7.1 (edcfbbe)
C           -1.50502364594036        2.11083372298403        0.25970715530694
C           -2.05478780267008        0.78193080989534       -0.23852921683122
C           -1.27020952235929       -0.45334477426607        0.32685344590280
C           -2.26451776910489       -1.39281617569059        0.92667056930453
C           -2.58140875075591       -2.58495987847574        0.36911764845119
C           -1.89349382759964       -3.05065701754397       -0.76223049530107
C           -0.80197899474058       -2.32214144826693       -1.24422650351017
C           -0.42766725688802       -1.11790274211448       -0.72142441322827
C            0.84287983797902       -0.46593788457064       -1.22506298905303
C            0.56768831858706        0.42126145101768       -2.44685527128346
C            1.60451272735638        0.22244300972627       -0.11561684479211
C            2.04209558055366        1.53779554334658       -0.18061101990919
C            2.74201605868979        2.10303351259126        0.87376805128713
C            3.01761675972061        1.36341588455030        2.00854493641709
C            2.59650248652393        0.04548404541785        2.08065902638166
C            1.90126485154847       -0.51684985143052        1.02781491898647
H           -0.45209959249803        2.21909675641721        0.01302739898823
H           -2.05412338931092        2.93790228638849       -0.18726843056199
H           -1.60549299046208        2.18099262485224        1.34102087921089
H           -3.10008244304051        0.69568554356948        0.06684258235144
H           -2.03872641372916        0.74421475446111       -1.32772272309277
H           -0.62172805430498       -0.06326077063237        1.12308376145908
H           -2.78069194804750       -1.03920351486718        1.80747058533565
H           -3.35397724747819       -3.20151753799835        0.80703451543519
H           -2.15988577097866       -3.99226176279167       -1.21490284859384
H           -0.20910648496520       -2.75524083803158       -2.04052913694000
H            1.48818868731495       -1.28317715788366       -1.57871780057628
H           -0.00327160760168        1.30558895644985       -2.18091986696189
H            1.50428845791092        0.73168312267141       -2.90598185817263
H           -0.00023712012561       -0.14575157366791       -3.18172029724368
H            1.85041936460190        2.13835490846778       -1.05645447574624
H            3.07278361259769        3.12947610988822        0.80383665951592
H            3.56081954882038        1.80729327775021        2.82969556533610
H            2.81197246667241       -0.54494969559420        2.95938751854754
H            1.57536187372049       -1.54651369661182        1.08493897359178
