35
 energy: -43.880110837268 gnorm: 0.000580058286 xtb: 6.7.1 (edcfbbe)
C           -2.38355322124025       -1.62403206183844        1.84278977178557
C           -2.76546127735134       -0.60018672435943        0.77141904748302
C           -1.68112025190384        0.38716541624607        0.44395066808428
C           -1.16943176302594        1.23188614754746        1.38373614617064
C           -0.28267606547476        2.26110730251005        1.04971815818155
C           -0.02031121072272        2.53198541623621       -0.30156407063253
C           -0.49289160217986        1.71945699873505       -1.27788428101355
C           -1.16997084524716        0.43342866161899       -0.96074005201744
C           -0.17668677769907       -0.78258845480603       -1.18938239949894
C           -0.00100215572730       -1.06509414047437       -2.67910433095245
C            1.11996392049219       -0.52074606584838       -0.47510912621235
C            2.12690493734353        0.25345182935866       -1.04103778380669
C            3.29197292162981        0.51946991482586       -0.34529626844454
C            3.47366086270478        0.01951455148285        0.93215271630432
C            2.48089172882178       -0.75454735040283        1.50587856588928
C            1.31761149255833       -1.01934719844688        0.80688923958476
H           -2.04322834067453       -1.12815143567855        2.74771435652832
H           -3.24364113225028       -2.24254527792195        2.09166587846268
H           -1.58878391197544       -2.27633957631396        1.48917743886097
H           -3.06701201784065       -1.13084300346970       -0.13455354777398
H           -3.63881472966065       -0.04452050722003        1.13067005884703
H           -1.49678329986018        1.14684727623787        2.41133448502742
H            0.12321817298810        2.89696647742532        1.81971277115124
H            0.53513140312758        3.42313055662641       -0.55931709722287
H           -0.33932432052404        1.95800721323501       -2.31932174520859
H           -1.99736068171517        0.25971830708919       -1.66249040461879
H           -0.64965468176782       -1.65899149035226       -0.73472562741188
H           -0.94403365904040       -1.39252585719411       -3.11335700978333
H            0.33218030678465       -0.18443138212263       -3.21999792198374
H            0.73519070086343       -1.85402388059353       -2.82205294037880
H            2.00819440763729        0.65773688021835       -2.03404712961570
H            4.06190158075624        1.12428438532167       -0.80277361065814
H            4.38284919121925        0.23090980919542        1.47591356095721
H            2.61154615860043       -1.15324657063982        2.50175606217856
H            0.55032416035419       -1.62310616622309        1.26827642173755
